
*** ChampSim Multicore Out-of-Order Simulator ***

Warmup Instructions: 50000000
Simulation Instructions: 50000000
Number of CPUs: 1
LLC sets: 2048
LLC ways: 16
Off-chip DRAM Size: 4096 MB Channels: 1 Width: 64-bit Data Rate: 6400 MT/s
CPU 0 runs ./traces/SPEC-CPU2017/462.libquantum-714B.champsimtrace.xz
.xz
CPU 0 Bimodal branch predictor
BTB has LRU replacement policy
ITLB has LRU replacement policy
DTLB has LRU replacement policy
STLB has LRU replacement policy
L1I has LRU replacement policy
L1D has LRU replacement policy
L2C has LRU replacement policy
LLC has LRU replacement policy
Heartbeat CPU 0 instructions: 10000001 cycles: 3582958 heartbeat IPC: 2.79099 cumulative IPC: 2.79099 (Simulation time: 0 hr 0 min 16 sec) 
Heartbeat CPU 0 instructions: 20000000 cycles: 6916288 heartbeat IPC: 3 cumulative IPC: 2.89172 (Simulation time: 0 hr 0 min 35 sec) 
Heartbeat CPU 0 instructions: 30000000 cycles: 10460606 heartbeat IPC: 2.82142 cumulative IPC: 2.8679 (Simulation time: 0 hr 0 min 52 sec) 
Heartbeat CPU 0 instructions: 40000000 cycles: 14091810 heartbeat IPC: 2.75391 cumulative IPC: 2.83853 (Simulation time: 0 hr 1 min 8 sec) 
Heartbeat CPU 0 instructions: 50000002 cycles: 17725051 heartbeat IPC: 2.75236 cumulative IPC: 2.82087 (Simulation time: 0 hr 1 min 23 sec) 

Warmup complete CPU 0 instructions: 50000002 cycles: 17725051 (Simulation time: 0 hr 1 min 23 sec) 

Heartbeat CPU 0 instructions: 60000000 cycles: 31379063 heartbeat IPC: 0.732385 cumulative IPC: 0.732385 (Simulation time: 0 hr 2 min 0 sec) 
Heartbeat CPU 0 instructions: 70000003 cycles: 45038631 heartbeat IPC: 0.732088 cumulative IPC: 0.732237 (Simulation time: 0 hr 2 min 38 sec) 
Heartbeat CPU 0 instructions: 80000000 cycles: 67955460 heartbeat IPC: 0.43636 cumulative IPC: 0.597248 (Simulation time: 0 hr 3 min 32 sec) 
Heartbeat CPU 0 instructions: 90000001 cycles: 87285306 heartbeat IPC: 0.517335 cumulative IPC: 0.575041 (Simulation time: 0 hr 4 min 17 sec) 
Heartbeat CPU 0 instructions: 100000000 cycles: 102706134 heartbeat IPC: 0.648474 cumulative IPC: 0.588366 (Simulation time: 0 hr 4 min 54 sec) 
Finished CPU 0 instructions: 50000000 cycles: 84981100 cumulative IPC: 0.588366 (Simulation time: 0 hr 4 min 54 sec) 

ChampSim completed all CPUs

Region of Interest Statistics

CPU 0 cumulative IPC: 0.588366 instructions: 50000000 cycles: 84981100
ITLB TOTAL     ACCESS:   10275935  HIT:   10275935  MISS:          0  HIT %:        100  MISS %:          0   MPKI: 0
ITLB LOAD TRANSLATION ACCESS:   10275935  HIT:   10275935  MISS:          0  HIT %:        100  MISS %:          0   MPKI: 0
ITLB PREFETCH  REQUESTED:          0  ISSUED:          0  USEFUL:          0  USELESS:          0
ITLB USEFUL LOAD PREFETCHES:          0 PREFETCH ISSUED TO LOWER LEVEL:          0  ACCURACY: -nan
ITLB TIMELY PREFETCHES:          0 LATE PREFETCHES: 0 DROPPED PREFETCHES: 0
ITLB PREFETCHES SAME FILL-ORIGIN LEVEL: 0 DIFFERENT FILL-ORIGIN LEVEL: 0
ITLB AVERAGE MISS LATENCY: -nan cycles
ITLB RQ	ACCESS:   11309712	FORWARD:          0	MERGED:    1033777	TO_CACHE:   10275935

DTLB TOTAL     ACCESS:    4521781  HIT:    4501050  MISS:      20731  HIT %:    99.5415  MISS %:    0.45847   MPKI: 0.41462
DTLB LOAD TRANSLATION ACCESS:    4521781  HIT:    4501050  MISS:      20731  HIT %:    99.5415  MISS %:    0.45847   MPKI: 0.41462
DTLB PREFETCH  REQUESTED:          0  ISSUED:          0  USEFUL:          0  USELESS:          0
DTLB USEFUL LOAD PREFETCHES:          0 PREFETCH ISSUED TO LOWER LEVEL:          0  ACCURACY: -nan
DTLB TIMELY PREFETCHES:          0 LATE PREFETCHES: 0 DROPPED PREFETCHES: 0
DTLB PREFETCHES SAME FILL-ORIGIN LEVEL: 0 DIFFERENT FILL-ORIGIN LEVEL: 0
DTLB AVERAGE MISS LATENCY: 53.4725 cycles
DTLB RQ	ACCESS:    5756936	FORWARD:          0	MERGED:    1198957	TO_CACHE:    4557979

STLB TOTAL     ACCESS:      20731  HIT:          0  MISS:      20731  HIT %:          0  MISS %:        100   MPKI: 0.41462
STLB LOAD TRANSLATION ACCESS:      20731  HIT:          0  MISS:      20731  HIT %:          0  MISS %:        100   MPKI: 0.41462
STLB PREFETCH  REQUESTED:          0  ISSUED:          0  USEFUL:          0  USELESS:          0
STLB USEFUL LOAD PREFETCHES:          0 PREFETCH ISSUED TO LOWER LEVEL:          0  ACCURACY: -nan
STLB TIMELY PREFETCHES:          0 LATE PREFETCHES: 0 DROPPED PREFETCHES: 0
STLB PREFETCHES SAME FILL-ORIGIN LEVEL: 0 DIFFERENT FILL-ORIGIN LEVEL: 0
STLB AVERAGE MISS LATENCY: 44.4725 cycles
STLB RQ	ACCESS:      20731	FORWARD:          0	MERGED:          0	TO_CACHE:      20731

STLB Hit, L1D data hit: 0
STLB Hit, L2C data hit: 0
STLB Hit, LLC data hit: 0
STLB Hit, LLC data miss: 0
STLB STLB hints to L2: 0
L1D TOTAL     ACCESS:    5167125  HIT:    3840623  MISS:    1326502  HIT %:     74.328  MISS %:     25.672   MPKI: 26.53
L1D LOAD      ACCESS:    3058433  HIT:    1731939  MISS:    1326494  HIT %:    56.6283  MISS %:    43.3717   MPKI: 26.5299
L1D RFO       ACCESS:    2108692  HIT:    2108684  MISS:          8  HIT %:    99.9996  MISS %: 0.000379382   MPKI: 0.00016
L1D PREFETCH  REQUESTED:          0  ISSUED:          0  USEFUL:          0  USELESS:          0
L1D USEFUL LOAD PREFETCHES:          0 PREFETCH ISSUED TO LOWER LEVEL:          0  ACCURACY: -nan
L1D TIMELY PREFETCHES:          0 LATE PREFETCHES: 0 DROPPED PREFETCHES: 0
L1D PREFETCHES SAME FILL-ORIGIN LEVEL: 0 DIFFERENT FILL-ORIGIN LEVEL: 0
L1D AVERAGE MISS LATENCY: 163.277 cycles
L1D RQ	ACCESS:   15917872	FORWARD:          0	MERGED:   12269641	TO_CACHE:    3648228
L1D WQ	ACCESS:    2108708	FORWARD:          3	MERGED:          0	TO_CACHE:    2108708

L1D UNIQUE REGIONS ACCESSED: 0
L1D REGIONS CONFLICTS: 0
L1D Cross Page Prefetch Requests: 0
L1D Same Page Prefetch Requests: 0
L1D ROI Sum of L1D PQ occupancy: 0
L1D PREFETCHES PUSHED FROM L2C: 0
L1I TOTAL     ACCESS:   11309712  HIT:   11309712  MISS:          0  HIT %:        100  MISS %:          0   MPKI: 0
L1I LOAD      ACCESS:   11309712  HIT:   11309712  MISS:          0  HIT %:        100  MISS %:          0   MPKI: 0
L1I PREFETCH  REQUESTED:          0  ISSUED:          0  USEFUL:          0  USELESS:          0
L1I USEFUL LOAD PREFETCHES:          0 PREFETCH ISSUED TO LOWER LEVEL:          0  ACCURACY: -nan
L1I TIMELY PREFETCHES:          0 LATE PREFETCHES: 0 DROPPED PREFETCHES: 0
L1I PREFETCHES SAME FILL-ORIGIN LEVEL: 0 DIFFERENT FILL-ORIGIN LEVEL: 0
L1I AVERAGE MISS LATENCY: -nan cycles
L1I RQ	ACCESS:   18123089	FORWARD:          0	MERGED:    6813377	TO_CACHE:   11309712

BTB TOTAL     ACCESS:    8514795  HIT:    8514772  MISS:         23  HIT %:    99.9997  MISS %: 0.000270118   MPKI: 0.00046
BTB BRANCH_DIRECT_JUMP	ACCESS:          0  HIT:          0  MISS:          0
BTB BRANCH_INDIRECT	ACCESS:          2  HIT:          1  MISS:          1
BTB BRANCH_CONDITIONAL	ACCESS:    8514773  HIT:    8514769  MISS:          4
BTB BRANCH_DIRECT_CALL	ACCESS:         10  HIT:          1  MISS:          9
BTB BRANCH_INDIRECT_CALL	ACCESS:          0  HIT:          0  MISS:          0
BTB BRANCH_RETURN	ACCESS:         10  HIT:          1  MISS:          9
BTB BRANCH_OTHER ACCESS:          0  HIT:          0  MISS:          0

L2C TOTAL     ACCESS:    1883022  HIT:     553925  MISS:    1329097  HIT %:    29.4168  MISS %:    70.5832   MPKI: 26.5819
L2C LOAD      ACCESS:    1326494  HIT:          0  MISS:    1326494  HIT %:          0  MISS %:        100   MPKI: 26.5299
L2C DATA LOAD MPKI: 26.5299
L2C INSTRUCTION LOAD MPKI: 0
L2C RFO       ACCESS:          8  HIT:          0  MISS:          8  HIT %:          0  MISS %:        100   MPKI: 0.00016
L2C WRITEBACK ACCESS:     535789  HIT:     535789  MISS:          0  HIT %:        100  MISS %:          0   MPKI: 0
L2C LOAD TRANSLATION ACCESS:      20731  HIT:      18136  MISS:       2595  HIT %:    87.4825  MISS %:    12.5175   MPKI: 0.0519
L2C PREFETCH  REQUESTED:          0  ISSUED:          0  USEFUL:          0  USELESS:          0
L2C USEFUL LOAD PREFETCHES:          0 PREFETCH ISSUED TO LOWER LEVEL:          0  ACCURACY: -nan
L2C TIMELY PREFETCHES:          0 LATE PREFETCHES: 0 DROPPED PREFETCHES: 0
L2C PREFETCHES SAME FILL-ORIGIN LEVEL: 0 DIFFERENT FILL-ORIGIN LEVEL: 0
L2C AVERAGE MISS LATENCY: 148.351 cycles
L2C RQ	ACCESS:    1347233	FORWARD:          0	MERGED:          0	TO_CACHE:    1347233
L2C WQ	ACCESS:     535789	FORWARD:          0	MERGED:          0	TO_CACHE:     535789

L2C Instructions Evicting Data 0
L2C Translations Evicting Data 2595
L2C Data Evicting Data 1323905
L2C Instructions Evicting Instructions 0
L2C Translations Evicting Instructions 0
L2C Data Evicting Instructions 0
L2C Instructions Evicting Translations 0
L2C Translations Evicting Translations 0
L2C Data Evicting Translations 2597
L2C Dense regions hint from L2: 0
PSCL5 TOTAL     ACCESS:      20731  HIT:      20731  MISS:          0  HIT %:        100  MISS %:          0   MPKI: 0
PSCL5 LOAD TRANSLATION ACCESS:      20731  HIT:      20731  MISS:          0  HIT %:        100  MISS %:          0   MPKI: 0
PSCL5 PREFETCH  REQUESTED:          0  ISSUED:          0  USEFUL:          0  USELESS:          0
PSCL5 USEFUL LOAD PREFETCHES:          0 PREFETCH ISSUED TO LOWER LEVEL:          0  ACCURACY: -nan
PSCL5 TIMELY PREFETCHES:          0 LATE PREFETCHES: 0 DROPPED PREFETCHES: 0
PSCL5 PREFETCHES SAME FILL-ORIGIN LEVEL: 0 DIFFERENT FILL-ORIGIN LEVEL: 0

PSCL4 TOTAL     ACCESS:      20731  HIT:      20731  MISS:          0  HIT %:        100  MISS %:          0   MPKI: 0
PSCL4 LOAD TRANSLATION ACCESS:      20731  HIT:      20731  MISS:          0  HIT %:        100  MISS %:          0   MPKI: 0
PSCL4 PREFETCH  REQUESTED:          0  ISSUED:          0  USEFUL:          0  USELESS:          0
PSCL4 USEFUL LOAD PREFETCHES:          0 PREFETCH ISSUED TO LOWER LEVEL:          0  ACCURACY: -nan
PSCL4 TIMELY PREFETCHES:          0 LATE PREFETCHES: 0 DROPPED PREFETCHES: 0
PSCL4 PREFETCHES SAME FILL-ORIGIN LEVEL: 0 DIFFERENT FILL-ORIGIN LEVEL: 0

PSCL3 TOTAL     ACCESS:      20731  HIT:      20731  MISS:          0  HIT %:        100  MISS %:          0   MPKI: 0
PSCL3 LOAD TRANSLATION ACCESS:      20731  HIT:      20731  MISS:          0  HIT %:        100  MISS %:          0   MPKI: 0
PSCL3 PREFETCH  REQUESTED:          0  ISSUED:          0  USEFUL:          0  USELESS:          0
PSCL3 USEFUL LOAD PREFETCHES:          0 PREFETCH ISSUED TO LOWER LEVEL:          0  ACCURACY: -nan
PSCL3 TIMELY PREFETCHES:          0 LATE PREFETCHES: 0 DROPPED PREFETCHES: 0
PSCL3 PREFETCHES SAME FILL-ORIGIN LEVEL: 0 DIFFERENT FILL-ORIGIN LEVEL: 0

PSCL2 TOTAL     ACCESS:      20731  HIT:      20731  MISS:          0  HIT %:        100  MISS %:          0   MPKI: 0
PSCL2 LOAD TRANSLATION ACCESS:      20731  HIT:      20731  MISS:          0  HIT %:        100  MISS %:          0   MPKI: 0
PSCL2 PREFETCH  REQUESTED:          0  ISSUED:          0  USEFUL:          0  USELESS:          0
PSCL2 USEFUL LOAD PREFETCHES:          0 PREFETCH ISSUED TO LOWER LEVEL:          0  ACCURACY: -nan
PSCL2 TIMELY PREFETCHES:          0 LATE PREFETCHES: 0 DROPPED PREFETCHES: 0
PSCL2 PREFETCHES SAME FILL-ORIGIN LEVEL: 0 DIFFERENT FILL-ORIGIN LEVEL: 0

LLC TOTAL     ACCESS:    1864655  HIT:     535558  MISS:    1329097  HIT %:    28.7216  MISS %:    71.2784   MPKI: 26.5819
LLC LOAD      ACCESS:    1326494  HIT:          0  MISS:    1326494  HIT %:          0  MISS %:        100   MPKI: 26.5299
LLC RFO       ACCESS:          8  HIT:          0  MISS:          8  HIT %:          0  MISS %:        100   MPKI: 0.00016
LLC WRITEBACK ACCESS:     535558  HIT:     535558  MISS:          0  HIT %:        100  MISS %:          0   MPKI: 0
LLC LOAD TRANSLATION ACCESS:       2595  HIT:          0  MISS:       2595  HIT %:          0  MISS %:        100   MPKI: 0.0519
LLC PREFETCH  REQUESTED:          0  ISSUED:          0  USEFUL:          0  USELESS:          0
LLC USEFUL LOAD PREFETCHES:          0 PREFETCH ISSUED TO LOWER LEVEL:          0  ACCURACY: -nan
LLC TIMELY PREFETCHES:          0 LATE PREFETCHES: 0 DROPPED PREFETCHES: 0
LLC PREFETCHES SAME FILL-ORIGIN LEVEL: 0 DIFFERENT FILL-ORIGIN LEVEL: 0
LLC AVERAGE MISS LATENCY: 118.351 cycles
LLC RQ	ACCESS:    1329097	FORWARD:          0	MERGED:          0	TO_CACHE:    1329097
LLC WQ	ACCESS:     535558	FORWARD:          0	MERGED:          0	TO_CACHE:     535558

LLC Dense regions hint to LLC: 0

RAW hits: 11
Loads Generated: 15917898
Loads sent to L1D: 15917872
Stores Generated: 2108708
Stores sent to L1D: 2108708
Major fault: 0 Minor fault: 8227
Allocated PAGES: 8227

DRAM Statistics
 CHANNEL 0
 RQ ROW_BUFFER_HIT:     783021  ROW_BUFFER_MISS:     546076
 DBUS_CONGESTED:       5722
 WQ ROW_BUFFER_HIT:     422817  ROW_BUFFER_MISS:     111974  FULL:          0

 AVG_CONGESTED_CYCLE: 2
 All warmup complete: 2
Channel 0 Bank busy for read cycles: 0
Channel 0 Bank busy for write cycles: 0
Channel 0
Rank 0
0banks busy for read cycles: 27651066
0banks busy for write cycles: 10521
1banks busy for read cycles: 8571351
1banks busy for write cycles: 2261974
2banks busy for read cycles: 6521684
2banks busy for write cycles: 145462
3banks busy for read cycles: 9952417
3banks busy for write cycles: 181893
4banks busy for read cycles: 6588844
4banks busy for write cycles: 254065
5banks busy for read cycles: 8649441
5banks busy for write cycles: 251407
6banks busy for read cycles: 0
6banks busy for write cycles: 366328
7banks busy for read cycles: 0
7banks busy for write cycles: 870788
8banks busy for read cycles: 0
8banks busy for write cycles: 12703860

CPU 0 Branch Prediction Accuracy: 99.8647% MPKI: 0.2304 Average ROB Occupancy at Mispredict: 221.056
Branch types
NOT_BRANCH: 41485382 82.9708%
BRANCH_DIRECT_JUMP: 0 0%
BRANCH_INDIRECT: 2 4e-06%
BRANCH_CONDITIONAL: 8514787 17.0296%
BRANCH_DIRECT_CALL: 10 2e-05%
BRANCH_INDIRECT_CALL: 0 0%
BRANCH_RETURN: 10 2e-05%
BRANCH_OTHER: 0 0%

DRAM PAGES: 1048576
Allocated PAGES: 8227
