
*** ChampSim Multicore Out-of-Order Simulator ***

Warmup Instructions: 50000000
Simulation Instructions: 50000000
Number of CPUs: 1
LLC sets: 2048
LLC ways: 16
Off-chip DRAM Size: 4096 MB Channels: 1 Width: 64-bit Data Rate: 6400 MT/s
CPU 0 runs traces/SPEC-CPU2017/462.libquantum-714B.champsimtrace.xz
.xz
CPU 0 Bimodal branch predictor
BTB has LRU replacement policy
ITLB has LRU replacement policy
DTLB has LRU replacement policy
STLB has LRU replacement policy
L1I has LRU replacement policy
L1D has LRU replacement policy
Ideal ISB Prefetching
L2C has LRU replacement policy
LLC has LRU replacement policy
Heartbeat CPU 0 instructions: 10000001 cycles: 3582958 heartbeat IPC: 2.79099 cumulative IPC: 2.79099 (Simulation time: 0 hr 0 min 24 sec) 
Heartbeat CPU 0 instructions: 20000000 cycles: 6916288 heartbeat IPC: 3 cumulative IPC: 2.89172 (Simulation time: 0 hr 0 min 52 sec) 
Heartbeat CPU 0 instructions: 30000000 cycles: 10460604 heartbeat IPC: 2.82142 cumulative IPC: 2.8679 (Simulation time: 0 hr 1 min 16 sec) 
Heartbeat CPU 0 instructions: 40000000 cycles: 14091809 heartbeat IPC: 2.75391 cumulative IPC: 2.83853 (Simulation time: 0 hr 1 min 39 sec) 
Heartbeat CPU 0 instructions: 50000000 cycles: 17725050 heartbeat IPC: 2.75236 cumulative IPC: 2.82087 (Simulation time: 0 hr 2 min 0 sec) 

Warmup complete CPU 0 instructions: 50000004 cycles: 17725051 (Simulation time: 0 hr 2 min 0 sec) 

Heartbeat CPU 0 instructions: 60000000 cycles: 27788725 heartbeat IPC: 0.993673 cumulative IPC: 0.993672 (Simulation time: 0 hr 2 min 44 sec) 
Heartbeat CPU 0 instructions: 70000003 cycles: 37977928 heartbeat IPC: 0.981431 cumulative IPC: 0.987514 (Simulation time: 0 hr 3 min 32 sec) 
Heartbeat CPU 0 instructions: 80000000 cycles: 53847078 heartbeat IPC: 0.630153 cumulative IPC: 0.830518 (Simulation time: 0 hr 4 min 29 sec) 
Heartbeat CPU 0 instructions: 90000000 cycles: 66589680 heartbeat IPC: 0.784769 cumulative IPC: 0.818588 (Simulation time: 0 hr 5 min 22 sec) 
Heartbeat CPU 0 instructions: 100000000 cycles: 77380084 heartbeat IPC: 0.926749 cumulative IPC: 0.838152 (Simulation time: 0 hr 6 min 10 sec) 
Finished CPU 0 instructions: 50000002 cycles: 59655053 cumulative IPC: 0.838152 (Simulation time: 0 hr 6 min 10 sec) 

ChampSim completed all CPUs

Region of Interest Statistics

CPU 0 cumulative IPC: 0.838152 instructions: 50000002 cycles: 59655053
ITLB TOTAL     ACCESS:   10049217  HIT:   10049217  MISS:          0  HIT %:        100  MISS %:          0   MPKI: 0
ITLB LOAD TRANSLATION ACCESS:   10049217  HIT:   10049217  MISS:          0  HIT %:        100  MISS %:          0   MPKI: 0
ITLB PREFETCH  REQUESTED:          0  ISSUED:          0  USEFUL:          0  USELESS:          0
ITLB USEFUL LOAD PREFETCHES:          0 PREFETCH ISSUED TO LOWER LEVEL:          0  ACCURACY: -nan
ITLB TIMELY PREFETCHES:          0 LATE PREFETCHES: 0 DROPPED PREFETCHES: 0
ITLB PREFETCHES SAME FILL-ORIGIN LEVEL: 0 DIFFERENT FILL-ORIGIN LEVEL: 0
ITLB AVERAGE MISS LATENCY: -nan cycles
ITLB RQ	ACCESS:   11108960	FORWARD:          0	MERGED:    1059744	TO_CACHE:   10049216

DTLB TOTAL     ACCESS:    6305146  HIT:    6284415  MISS:      20731  HIT %:    99.6712  MISS %:   0.328795   MPKI: 0.41462
DTLB LOAD TRANSLATION ACCESS:    6305146  HIT:    6284415  MISS:      20731  HIT %:    99.6712  MISS %:   0.328795   MPKI: 0.41462
DTLB PREFETCH  REQUESTED:          0  ISSUED:          0  USEFUL:          0  USELESS:          0
DTLB USEFUL LOAD PREFETCHES:          0 PREFETCH ISSUED TO LOWER LEVEL:          0  ACCURACY: -nan
DTLB TIMELY PREFETCHES:          0 LATE PREFETCHES: 0 DROPPED PREFETCHES: 0
DTLB PREFETCHES SAME FILL-ORIGIN LEVEL: 0 DIFFERENT FILL-ORIGIN LEVEL: 0
DTLB AVERAGE MISS LATENCY: 57.6733 cycles
DTLB RQ	ACCESS:    7518907	FORWARD:          0	MERGED:    1186147	TO_CACHE:    6332760

STLB TOTAL     ACCESS:      20731  HIT:          0  MISS:      20731  HIT %:          0  MISS %:        100   MPKI: 0.41462
STLB LOAD TRANSLATION ACCESS:      20731  HIT:          0  MISS:      20731  HIT %:          0  MISS %:        100   MPKI: 0.41462
STLB PREFETCH  REQUESTED:          0  ISSUED:          0  USEFUL:          0  USELESS:          0
STLB USEFUL LOAD PREFETCHES:          0 PREFETCH ISSUED TO LOWER LEVEL:          0  ACCURACY: -nan
STLB TIMELY PREFETCHES:          0 LATE PREFETCHES: 0 DROPPED PREFETCHES: 0
STLB PREFETCHES SAME FILL-ORIGIN LEVEL: 0 DIFFERENT FILL-ORIGIN LEVEL: 0
STLB AVERAGE MISS LATENCY: 48.6733 cycles
STLB RQ	ACCESS:      20731	FORWARD:          0	MERGED:          0	TO_CACHE:      20731

STLB Hit, L1D data hit: 0
STLB Hit, L2C data hit: 0
STLB Hit, LLC data hit: 0
STLB Hit, LLC data miss: 0
STLB STLB hints to L2: 0
L1D TOTAL     ACCESS:    6769770  HIT:    5443268  MISS:    1326502  HIT %:    80.4055  MISS %:    19.5945   MPKI: 26.53
L1D LOAD      ACCESS:    4661078  HIT:    3334584  MISS:    1326494  HIT %:     71.541  MISS %:     28.459   MPKI: 26.5299
L1D RFO       ACCESS:    2108692  HIT:    2108684  MISS:          8  HIT %:    99.9996  MISS %: 0.000379382   MPKI: 0.00016
L1D PREFETCH  REQUESTED:          0  ISSUED:          0  USEFUL:          0  USELESS:          0
L1D USEFUL LOAD PREFETCHES:          0 PREFETCH ISSUED TO LOWER LEVEL:          0  ACCURACY: -nan
L1D TIMELY PREFETCHES:          0 LATE PREFETCHES: 0 DROPPED PREFETCHES: 0
L1D PREFETCHES SAME FILL-ORIGIN LEVEL: 0 DIFFERENT FILL-ORIGIN LEVEL: 0
L1D AVERAGE MISS LATENCY: 41.3974 cycles
L1D RQ	ACCESS:   15917882	FORWARD:          0	MERGED:   10507679	TO_CACHE:    5410199
L1D WQ	ACCESS:    2108708	FORWARD:          4	MERGED:          0	TO_CACHE:    2108708

L1D UNIQUE REGIONS ACCESSED: 0
L1D REGIONS CONFLICTS: 0
L1D Cross Page Prefetch Requests: 0
L1D Same Page Prefetch Requests: 0
L1D ROI Sum of L1D PQ occupancy: 0
L1D PREFETCHES PUSHED FROM L2C: 0
L1I TOTAL     ACCESS:   11108960  HIT:   11108960  MISS:          0  HIT %:        100  MISS %:          0   MPKI: 0
L1I LOAD      ACCESS:   11108960  HIT:   11108960  MISS:          0  HIT %:        100  MISS %:          0   MPKI: 0
L1I PREFETCH  REQUESTED:          0  ISSUED:          0  USEFUL:          0  USELESS:          0
L1I USEFUL LOAD PREFETCHES:          0 PREFETCH ISSUED TO LOWER LEVEL:          0  ACCURACY: -nan
L1I TIMELY PREFETCHES:          0 LATE PREFETCHES: 0 DROPPED PREFETCHES: 0
L1I PREFETCHES SAME FILL-ORIGIN LEVEL: 0 DIFFERENT FILL-ORIGIN LEVEL: 0
L1I AVERAGE MISS LATENCY: -nan cycles
L1I RQ	ACCESS:   18138753	FORWARD:          0	MERGED:    7029793	TO_CACHE:   11108960

BTB TOTAL     ACCESS:    8514774  HIT:    8514751  MISS:         23  HIT %:    99.9997  MISS %: 0.000270119   MPKI: 0.00046
BTB BRANCH_DIRECT_JUMP	ACCESS:          0  HIT:          0  MISS:          0
BTB BRANCH_INDIRECT	ACCESS:          2  HIT:          1  MISS:          1
BTB BRANCH_CONDITIONAL	ACCESS:    8514752  HIT:    8514748  MISS:          4
BTB BRANCH_DIRECT_CALL	ACCESS:         10  HIT:          1  MISS:          9
BTB BRANCH_INDIRECT_CALL	ACCESS:          0  HIT:          0  MISS:          0
BTB BRANCH_RETURN	ACCESS:         10  HIT:          1  MISS:          9
BTB BRANCH_OTHER ACCESS:          0  HIT:          0  MISS:          0

L2C TOTAL     ACCESS:    2935752  HIT:    1606656  MISS:    1329096  HIT %:    54.7272  MISS %:    45.2728   MPKI: 26.5819
L2C LOAD      ACCESS:    1326494  HIT:    1046892  MISS:     279602  HIT %:    78.9217  MISS %:    21.0783   MPKI: 5.59204
L2C DATA LOAD MPKI: 5.59204
L2C INSTRUCTION LOAD MPKI: 0
L2C RFO       ACCESS:          8  HIT:          0  MISS:          8  HIT %:          0  MISS %:        100   MPKI: 0.00016
L2C PREFETCH  ACCESS:    1052730  HIT:       5839  MISS:    1046891  HIT %:   0.554653  MISS %:    99.4453   MPKI: 20.9378
AGUS PREFETCH L1 MISS: 0
L2C DATA PREFETCH MPKI: 20.9378
L2C INSTRUCTION PREFETCH MPKI: 0
L2C WRITEBACK ACCESS:     535789  HIT:     535789  MISS:          0  HIT %:        100  MISS %:          0   MPKI: 0
L2C LOAD TRANSLATION ACCESS:      20731  HIT:      18136  MISS:       2595  HIT %:    87.4825  MISS %:    12.5175   MPKI: 0.0519
L2C PREFETCH  REQUESTED:    2197544  ISSUED:    2197544  USEFUL:    1046892  USELESS:          0
L2C USEFUL LOAD PREFETCHES:    1046892 PREFETCH ISSUED TO LOWER LEVEL:    1176309  ACCURACY: 88.998
L2C TIMELY PREFETCHES:    1046892 LATE PREFETCHES: 129417 DROPPED PREFETCHES: 0
L2C PREFETCHES SAME FILL-ORIGIN LEVEL: 1176309 DIFFERENT FILL-ORIGIN LEVEL: 0
L2C AVERAGE MISS LATENCY: 166.545 cycles
L2C RQ	ACCESS:    1347233	FORWARD:          0	MERGED:          0	TO_CACHE:    1347233
L2C WQ	ACCESS:     535789	FORWARD:          0	MERGED:          0	TO_CACHE:     535789
L2C PQ	ACCESS:    2197544	FORWARD:          0	MERGED:     174012	TO_CACHE:    2023532

L2C Instructions Evicting Data 0
L2C Translations Evicting Data 2595
L2C Data Evicting Data 1323904
L2C Instructions Evicting Instructions 0
L2C Translations Evicting Instructions 0
L2C Data Evicting Instructions 0
L2C Instructions Evicting Translations 0
L2C Translations Evicting Translations 0
L2C Data Evicting Translations 2597
L2C Dense regions hint from L2: 0
PSCL5 TOTAL     ACCESS:      20731  HIT:      20731  MISS:          0  HIT %:        100  MISS %:          0   MPKI: 0
PSCL5 LOAD TRANSLATION ACCESS:      20731  HIT:      20731  MISS:          0  HIT %:        100  MISS %:          0   MPKI: 0
PSCL5 PREFETCH  REQUESTED:          0  ISSUED:          0  USEFUL:          0  USELESS:          0
PSCL5 USEFUL LOAD PREFETCHES:          0 PREFETCH ISSUED TO LOWER LEVEL:          0  ACCURACY: -nan
PSCL5 TIMELY PREFETCHES:          0 LATE PREFETCHES: 0 DROPPED PREFETCHES: 0
PSCL5 PREFETCHES SAME FILL-ORIGIN LEVEL: 0 DIFFERENT FILL-ORIGIN LEVEL: 0

PSCL4 TOTAL     ACCESS:      20731  HIT:      20731  MISS:          0  HIT %:        100  MISS %:          0   MPKI: 0
PSCL4 LOAD TRANSLATION ACCESS:      20731  HIT:      20731  MISS:          0  HIT %:        100  MISS %:          0   MPKI: 0
PSCL4 PREFETCH  REQUESTED:          0  ISSUED:          0  USEFUL:          0  USELESS:          0
PSCL4 USEFUL LOAD PREFETCHES:          0 PREFETCH ISSUED TO LOWER LEVEL:          0  ACCURACY: -nan
PSCL4 TIMELY PREFETCHES:          0 LATE PREFETCHES: 0 DROPPED PREFETCHES: 0
PSCL4 PREFETCHES SAME FILL-ORIGIN LEVEL: 0 DIFFERENT FILL-ORIGIN LEVEL: 0

PSCL3 TOTAL     ACCESS:      20731  HIT:      20731  MISS:          0  HIT %:        100  MISS %:          0   MPKI: 0
PSCL3 LOAD TRANSLATION ACCESS:      20731  HIT:      20731  MISS:          0  HIT %:        100  MISS %:          0   MPKI: 0
PSCL3 PREFETCH  REQUESTED:          0  ISSUED:          0  USEFUL:          0  USELESS:          0
PSCL3 USEFUL LOAD PREFETCHES:          0 PREFETCH ISSUED TO LOWER LEVEL:          0  ACCURACY: -nan
PSCL3 TIMELY PREFETCHES:          0 LATE PREFETCHES: 0 DROPPED PREFETCHES: 0
PSCL3 PREFETCHES SAME FILL-ORIGIN LEVEL: 0 DIFFERENT FILL-ORIGIN LEVEL: 0

PSCL2 TOTAL     ACCESS:      20731  HIT:      20731  MISS:          0  HIT %:        100  MISS %:          0   MPKI: 0
PSCL2 LOAD TRANSLATION ACCESS:      20731  HIT:      20731  MISS:          0  HIT %:        100  MISS %:          0   MPKI: 0
PSCL2 PREFETCH  REQUESTED:          0  ISSUED:          0  USEFUL:          0  USELESS:          0
PSCL2 USEFUL LOAD PREFETCHES:          0 PREFETCH ISSUED TO LOWER LEVEL:          0  ACCURACY: -nan
PSCL2 TIMELY PREFETCHES:          0 LATE PREFETCHES: 0 DROPPED PREFETCHES: 0
PSCL2 PREFETCHES SAME FILL-ORIGIN LEVEL: 0 DIFFERENT FILL-ORIGIN LEVEL: 0

LLC TOTAL     ACCESS:    1864654  HIT:     535558  MISS:    1329096  HIT %:    28.7216  MISS %:    71.2784   MPKI: 26.5819
LLC LOAD      ACCESS:     150185  HIT:          0  MISS:     150185  HIT %:          0  MISS %:        100   MPKI: 3.0037
LLC RFO       ACCESS:          8  HIT:          0  MISS:          8  HIT %:          0  MISS %:        100   MPKI: 0.00016
LLC PREFETCH  ACCESS:    1176308  HIT:          0  MISS:    1176308  HIT %:          0  MISS %:        100   MPKI: 23.5262
AGUS PREFETCH L1 MISS: 0
LLC WRITEBACK ACCESS:     535558  HIT:     535558  MISS:          0  HIT %:        100  MISS %:          0   MPKI: 0
LLC LOAD TRANSLATION ACCESS:       2595  HIT:          0  MISS:       2595  HIT %:          0  MISS %:        100   MPKI: 0.0519
LLC PREFETCH  REQUESTED:          0  ISSUED:          0  USEFUL:          0  USELESS:    1176437
LLC USEFUL LOAD PREFETCHES:          0 PREFETCH ISSUED TO LOWER LEVEL:    1176309  ACCURACY: 0
LLC TIMELY PREFETCHES:          0 LATE PREFETCHES: 0 DROPPED PREFETCHES: 0
LLC PREFETCHES SAME FILL-ORIGIN LEVEL: 0 DIFFERENT FILL-ORIGIN LEVEL: 0
LLC AVERAGE MISS LATENCY: 136.545 cycles
LLC RQ	ACCESS:     152788	FORWARD:          0	MERGED:          0	TO_CACHE:     152788
LLC WQ	ACCESS:     535558	FORWARD:          0	MERGED:          0	TO_CACHE:     535558
LLC PQ	ACCESS:    1176309	FORWARD:          0	MERGED:          0	TO_CACHE:    1176309

LLC Dense regions hint to LLC: 0

RAW hits: 4
Loads Generated: 15917890
Loads sent to L1D: 15917882
Stores Generated: 2108708
Stores sent to L1D: 2108708
Major fault: 0 Minor fault: 8227
Allocated PAGES: 8227
Prefetcher final stats
Coverage: 78.9217
Training Unit Size: 7
Addr table size: 521334 521334


Triggers: 893187
No Prediction: 528166 59.1327
Stream end: 2677
No translation: 286466 32.0723
Predictions: 2910266 325.829


Stream divergence: 19734 2.20939
Stream divergence -- new stream: 0

DRAM Statistics
 CHANNEL 0
 RQ ROW_BUFFER_HIT:     861331  ROW_BUFFER_MISS:     467766
 DBUS_CONGESTED:          2
 WQ ROW_BUFFER_HIT:      95391  ROW_BUFFER_MISS:     439400  FULL:          0

 AVG_CONGESTED_CYCLE: 7
 All warmup complete: 2
Channel 0 Bank busy for read cycles: 0
Channel 0 Bank busy for write cycles: 0
Channel 0
Rank 0
0banks busy for read cycles: 23649034
0banks busy for write cycles: 13378
1banks busy for read cycles: 6390118
1banks busy for write cycles: 1688015
2banks busy for read cycles: 2851803
2banks busy for write cycles: 75080
3banks busy for read cycles: 1064358
3banks busy for write cycles: 162934
4banks busy for read cycles: 410475
4banks busy for write cycles: 70463
5banks busy for read cycles: 368569
5banks busy for write cycles: 66698
6banks busy for read cycles: 334947
6banks busy for write cycles: 66776
7banks busy for read cycles: 628161
7banks busy for write cycles: 581352
8banks busy for read cycles: 11006765
8banks busy for write cycles: 10226128

CPU 0 Branch Prediction Accuracy: 99.8647% MPKI: 0.2304 Average ROB Occupancy at Mispredict: 112.13
Branch types
NOT_BRANCH: 41485287 82.9706%
BRANCH_DIRECT_JUMP: 0 0%
BRANCH_INDIRECT: 2 4e-06%
BRANCH_CONDITIONAL: 8514766 17.0295%
BRANCH_DIRECT_CALL: 10 2e-05%
BRANCH_INDIRECT_CALL: 0 0%
BRANCH_RETURN: 10 2e-05%
BRANCH_OTHER: 0 0%

DRAM PAGES: 1048576
Allocated PAGES: 8227
