
*** ChampSim Multicore Out-of-Order Simulator ***

Warmup Instructions: 50000000
Simulation Instructions: 50000000
Number of CPUs: 1
LLC sets: 2048
LLC ways: 16
Off-chip DRAM Size: 4096 MB Channels: 1 Width: 64-bit Data Rate: 6400 MT/s
CPU 0 runs ./traces/SPEC-CPU2017/482.sphinx3-234B.champsimtrace.xz
.xz
CPU 0 Bimodal branch predictor
BTB has LRU replacement policy
ITLB has LRU replacement policy
DTLB has LRU replacement policy
STLB has LRU replacement policy
L1I has LRU replacement policy
L1D has LRU replacement policy
L2C has LRU replacement policy
LLC has LRU replacement policy
Heartbeat CPU 0 instructions: 10000000 cycles: 3095417 heartbeat IPC: 3.23058 cumulative IPC: 3.23058 (Simulation time: 0 hr 0 min 21 sec) 
Heartbeat CPU 0 instructions: 20000000 cycles: 6193088 heartbeat IPC: 3.22823 cumulative IPC: 3.22941 (Simulation time: 0 hr 0 min 42 sec) 
Heartbeat CPU 0 instructions: 30000001 cycles: 9288428 heartbeat IPC: 3.23066 cumulative IPC: 3.22983 (Simulation time: 0 hr 1 min 4 sec) 
Heartbeat CPU 0 instructions: 40000000 cycles: 12420253 heartbeat IPC: 3.19303 cumulative IPC: 3.22055 (Simulation time: 0 hr 1 min 24 sec) 
Heartbeat CPU 0 instructions: 50000000 cycles: 15472148 heartbeat IPC: 3.27665 cumulative IPC: 3.23161 (Simulation time: 0 hr 1 min 45 sec) 

Warmup complete CPU 0 instructions: 50000004 cycles: 15472149 (Simulation time: 0 hr 1 min 45 sec) 

Heartbeat CPU 0 instructions: 60000000 cycles: 33486285 heartbeat IPC: 0.55512 cumulative IPC: 0.555119 (Simulation time: 0 hr 2 min 24 sec) 
Heartbeat CPU 0 instructions: 70000000 cycles: 50982074 heartbeat IPC: 0.571566 cumulative IPC: 0.563223 (Simulation time: 0 hr 3 min 2 sec) 
Heartbeat CPU 0 instructions: 80000000 cycles: 68322555 heartbeat IPC: 0.576685 cumulative IPC: 0.56764 (Simulation time: 0 hr 3 min 40 sec) 
Heartbeat CPU 0 instructions: 90000001 cycles: 85749166 heartbeat IPC: 0.573835 cumulative IPC: 0.569176 (Simulation time: 0 hr 4 min 18 sec) 
Heartbeat CPU 0 instructions: 100000000 cycles: 103983406 heartbeat IPC: 0.548419 cumulative IPC: 0.5649 (Simulation time: 0 hr 4 min 57 sec) 
Finished CPU 0 instructions: 50000000 cycles: 88511389 cumulative IPC: 0.564899 (Simulation time: 0 hr 4 min 57 sec) 

ChampSim completed all CPUs

Region of Interest Statistics

CPU 0 cumulative IPC: 0.564899 instructions: 50000000 cycles: 88511389
ITLB TOTAL     ACCESS:    9736977  HIT:    9736977  MISS:          0  HIT %:        100  MISS %:          0   MPKI: 0
ITLB LOAD TRANSLATION ACCESS:    9736977  HIT:    9736977  MISS:          0  HIT %:        100  MISS %:          0   MPKI: 0
ITLB PREFETCH  REQUESTED:          0  ISSUED:          0  USEFUL:          0  USELESS:          0
ITLB USEFUL LOAD PREFETCHES:          0 PREFETCH ISSUED TO LOWER LEVEL:          0  ACCURACY: -nan
ITLB TIMELY PREFETCHES:          0 LATE PREFETCHES: 0 DROPPED PREFETCHES: 0
ITLB PREFETCHES SAME FILL-ORIGIN LEVEL: 0 DIFFERENT FILL-ORIGIN LEVEL: 0
ITLB AVERAGE MISS LATENCY: -nan cycles
ITLB RQ	ACCESS:   10561625	FORWARD:          0	MERGED:     824648	TO_CACHE:    9736977

DTLB TOTAL     ACCESS:    6967268  HIT:    6905296  MISS:      61972  HIT %:    99.1105  MISS %:   0.889473   MPKI: 1.23944
DTLB LOAD TRANSLATION ACCESS:    6967268  HIT:    6905296  MISS:      61972  HIT %:    99.1105  MISS %:   0.889473   MPKI: 1.23944
DTLB PREFETCH  REQUESTED:          0  ISSUED:          0  USEFUL:          0  USELESS:          0
DTLB USEFUL LOAD PREFETCHES:          0 PREFETCH ISSUED TO LOWER LEVEL:          0  ACCURACY: -nan
DTLB TIMELY PREFETCHES:          0 LATE PREFETCHES: 0 DROPPED PREFETCHES: 0
DTLB PREFETCHES SAME FILL-ORIGIN LEVEL: 0 DIFFERENT FILL-ORIGIN LEVEL: 0
DTLB AVERAGE MISS LATENCY: 33.6799 cycles
DTLB RQ	ACCESS:    7719186	FORWARD:          0	MERGED:     740768	TO_CACHE:    6978418

STLB TOTAL     ACCESS:      61972  HIT:      43032  MISS:      18940  HIT %:    69.4378  MISS %:    30.5622   MPKI: 0.3788
STLB LOAD TRANSLATION ACCESS:      61972  HIT:      43032  MISS:      18940  HIT %:    69.4378  MISS %:    30.5622   MPKI: 0.3788
STLB PREFETCH  REQUESTED:          0  ISSUED:          0  USEFUL:          0  USELESS:          0
STLB USEFUL LOAD PREFETCHES:          0 PREFETCH ISSUED TO LOWER LEVEL:          0  ACCURACY: -nan
STLB TIMELY PREFETCHES:          0 LATE PREFETCHES: 0 DROPPED PREFETCHES: 0
STLB PREFETCHES SAME FILL-ORIGIN LEVEL: 0 DIFFERENT FILL-ORIGIN LEVEL: 0
STLB AVERAGE MISS LATENCY: 80.5955 cycles
STLB RQ	ACCESS:      61972	FORWARD:          0	MERGED:          0	TO_CACHE:      61972

STLB Hit, L1D data hit: 0
STLB Hit, L2C data hit: 0
STLB Hit, LLC data hit: 0
STLB Hit, LLC data miss: 0
STLB STLB hints to L2: 0
L1D TOTAL     ACCESS:    6434030  HIT:    5723167  MISS:     710863  HIT %:    88.9515  MISS %:    11.0485   MPKI: 14.2173
L1D LOAD      ACCESS:    5737293  HIT:    5060512  MISS:     676781  HIT %:    88.2038  MISS %:    11.7962   MPKI: 13.5356
L1D RFO       ACCESS:     696737  HIT:     662655  MISS:      34082  HIT %:    95.1083  MISS %:    4.89166   MPKI: 0.68164
L1D PREFETCH  REQUESTED:          0  ISSUED:          0  USEFUL:          0  USELESS:          0
L1D USEFUL LOAD PREFETCHES:          0 PREFETCH ISSUED TO LOWER LEVEL:          0  ACCURACY: -nan
L1D TIMELY PREFETCHES:          0 LATE PREFETCHES: 0 DROPPED PREFETCHES: 0
L1D PREFETCHES SAME FILL-ORIGIN LEVEL: 0 DIFFERENT FILL-ORIGIN LEVEL: 0
L1D AVERAGE MISS LATENCY: 142.964 cycles
L1D RQ	ACCESS:   12887556	FORWARD:          0	MERGED:    6014645	TO_CACHE:    6862391
L1D WQ	ACCESS:     858601	FORWARD:      10520	MERGED:       1806	TO_CACHE:     856795

L1D UNIQUE REGIONS ACCESSED: 0
L1D REGIONS CONFLICTS: 0
L1D Cross Page Prefetch Requests: 0
L1D Same Page Prefetch Requests: 0
L1D ROI Sum of L1D PQ occupancy: 0
L1D PREFETCHES PUSHED FROM L2C: 0
L1I TOTAL     ACCESS:   10561623  HIT:   10561623  MISS:          0  HIT %:        100  MISS %:          0   MPKI: 0
L1I LOAD      ACCESS:   10561623  HIT:   10561623  MISS:          0  HIT %:        100  MISS %:          0   MPKI: 0
L1I PREFETCH  REQUESTED:          0  ISSUED:          0  USEFUL:          0  USELESS:          0
L1I USEFUL LOAD PREFETCHES:          0 PREFETCH ISSUED TO LOWER LEVEL:          0  ACCURACY: -nan
L1I TIMELY PREFETCHES:          0 LATE PREFETCHES: 0 DROPPED PREFETCHES: 0
L1I PREFETCHES SAME FILL-ORIGIN LEVEL: 0 DIFFERENT FILL-ORIGIN LEVEL: 0
L1I AVERAGE MISS LATENCY: -nan cycles
L1I RQ	ACCESS:   12791124	FORWARD:          0	MERGED:    2229499	TO_CACHE:   10561625

BTB TOTAL     ACCESS:    4309238  HIT:    4298945  MISS:      10293  HIT %:    99.7611  MISS %:   0.238859   MPKI: 0.20586
BTB BRANCH_DIRECT_JUMP	ACCESS:      86244  HIT:      86193  MISS:         51
BTB BRANCH_INDIRECT	ACCESS:          0  HIT:          0  MISS:          0
BTB BRANCH_CONDITIONAL	ACCESS:    4052274  HIT:    4052095  MISS:        179
BTB BRANCH_DIRECT_CALL	ACCESS:      85361  HIT:      85283  MISS:         78
BTB BRANCH_INDIRECT_CALL	ACCESS:          0  HIT:          0  MISS:          0
BTB BRANCH_RETURN	ACCESS:      85359  HIT:      75374  MISS:       9985
BTB BRANCH_OTHER ACCESS:          0  HIT:          0  MISS:          0

L2C TOTAL     ACCESS:     771658  HIT:     162405  MISS:     609253  HIT %:    21.0462  MISS %:    78.9538   MPKI: 12.1851
L2C LOAD      ACCESS:     676781  HIT:     103658  MISS:     573123  HIT %:    15.3163  MISS %:    84.6837   MPKI: 11.4625
L2C DATA LOAD MPKI: 11.4625
L2C INSTRUCTION LOAD MPKI: 0
L2C RFO       ACCESS:      34082  HIT:       2466  MISS:      31616  HIT %:    7.23549  MISS %:    92.7645   MPKI: 0.63232
L2C WRITEBACK ACCESS:      41855  HIT:      41732  MISS:        123  HIT %:    99.7061  MISS %:   0.293872   MPKI: 0.00246
L2C LOAD TRANSLATION ACCESS:      18940  HIT:      14549  MISS:       4391  HIT %:    76.8163  MISS %:    23.1837   MPKI: 0.08782
L2C PREFETCH  REQUESTED:          0  ISSUED:          0  USEFUL:          0  USELESS:          0
L2C USEFUL LOAD PREFETCHES:          0 PREFETCH ISSUED TO LOWER LEVEL:          0  ACCURACY: -nan
L2C TIMELY PREFETCHES:          0 LATE PREFETCHES: 0 DROPPED PREFETCHES: 0
L2C PREFETCHES SAME FILL-ORIGIN LEVEL: 0 DIFFERENT FILL-ORIGIN LEVEL: 0
L2C AVERAGE MISS LATENCY: 150.675 cycles
L2C RQ	ACCESS:     729803	FORWARD:          0	MERGED:          0	TO_CACHE:     729803
L2C WQ	ACCESS:      41855	FORWARD:          0	MERGED:          0	TO_CACHE:      41855

L2C Instructions Evicting Data 0
L2C Translations Evicting Data 4385
L2C Data Evicting Data 600340
L2C Instructions Evicting Instructions 0
L2C Translations Evicting Instructions 0
L2C Data Evicting Instructions 0
L2C Instructions Evicting Translations 0
L2C Translations Evicting Translations 6
L2C Data Evicting Translations 4399
L2C Dense regions hint from L2: 0
PSCL5 TOTAL     ACCESS:      18940  HIT:      18940  MISS:          0  HIT %:        100  MISS %:          0   MPKI: 0
PSCL5 LOAD TRANSLATION ACCESS:      18940  HIT:      18940  MISS:          0  HIT %:        100  MISS %:          0   MPKI: 0
PSCL5 PREFETCH  REQUESTED:          0  ISSUED:          0  USEFUL:          0  USELESS:          0
PSCL5 USEFUL LOAD PREFETCHES:          0 PREFETCH ISSUED TO LOWER LEVEL:          0  ACCURACY: -nan
PSCL5 TIMELY PREFETCHES:          0 LATE PREFETCHES: 0 DROPPED PREFETCHES: 0
PSCL5 PREFETCHES SAME FILL-ORIGIN LEVEL: 0 DIFFERENT FILL-ORIGIN LEVEL: 0

PSCL4 TOTAL     ACCESS:      18940  HIT:      18940  MISS:          0  HIT %:        100  MISS %:          0   MPKI: 0
PSCL4 LOAD TRANSLATION ACCESS:      18940  HIT:      18940  MISS:          0  HIT %:        100  MISS %:          0   MPKI: 0
PSCL4 PREFETCH  REQUESTED:          0  ISSUED:          0  USEFUL:          0  USELESS:          0
PSCL4 USEFUL LOAD PREFETCHES:          0 PREFETCH ISSUED TO LOWER LEVEL:          0  ACCURACY: -nan
PSCL4 TIMELY PREFETCHES:          0 LATE PREFETCHES: 0 DROPPED PREFETCHES: 0
PSCL4 PREFETCHES SAME FILL-ORIGIN LEVEL: 0 DIFFERENT FILL-ORIGIN LEVEL: 0

PSCL3 TOTAL     ACCESS:      18940  HIT:      18940  MISS:          0  HIT %:        100  MISS %:          0   MPKI: 0
PSCL3 LOAD TRANSLATION ACCESS:      18940  HIT:      18940  MISS:          0  HIT %:        100  MISS %:          0   MPKI: 0
PSCL3 PREFETCH  REQUESTED:          0  ISSUED:          0  USEFUL:          0  USELESS:          0
PSCL3 USEFUL LOAD PREFETCHES:          0 PREFETCH ISSUED TO LOWER LEVEL:          0  ACCURACY: -nan
PSCL3 TIMELY PREFETCHES:          0 LATE PREFETCHES: 0 DROPPED PREFETCHES: 0
PSCL3 PREFETCHES SAME FILL-ORIGIN LEVEL: 0 DIFFERENT FILL-ORIGIN LEVEL: 0

PSCL2 TOTAL     ACCESS:      18940  HIT:      18940  MISS:          0  HIT %:        100  MISS %:          0   MPKI: 0
PSCL2 LOAD TRANSLATION ACCESS:      18940  HIT:      18940  MISS:          0  HIT %:        100  MISS %:          0   MPKI: 0
PSCL2 PREFETCH  REQUESTED:          0  ISSUED:          0  USEFUL:          0  USELESS:          0
PSCL2 USEFUL LOAD PREFETCHES:          0 PREFETCH ISSUED TO LOWER LEVEL:          0  ACCURACY: -nan
PSCL2 TIMELY PREFETCHES:          0 LATE PREFETCHES: 0 DROPPED PREFETCHES: 0
PSCL2 PREFETCHES SAME FILL-ORIGIN LEVEL: 0 DIFFERENT FILL-ORIGIN LEVEL: 0

LLC TOTAL     ACCESS:     647214  HIT:      63654  MISS:     583560  HIT %:    9.83508  MISS %:    90.1649   MPKI: 11.6712
LLC LOAD      ACCESS:     573122  HIT:      20977  MISS:     552145  HIT %:    3.66013  MISS %:    96.3399   MPKI: 11.0429
LLC RFO       ACCESS:      31616  HIT:       5183  MISS:      26433  HIT %:    16.3936  MISS %:    83.6064   MPKI: 0.52866
LLC WRITEBACK ACCESS:      38085  HIT:      37371  MISS:        714  HIT %:    98.1252  MISS %:    1.87475   MPKI: 0.01428
LLC LOAD TRANSLATION ACCESS:       4391  HIT:        123  MISS:       4268  HIT %:    2.80118  MISS %:    97.1988   MPKI: 0.08536
LLC PREFETCH  REQUESTED:          0  ISSUED:          0  USEFUL:          0  USELESS:          0
LLC USEFUL LOAD PREFETCHES:          0 PREFETCH ISSUED TO LOWER LEVEL:          0  ACCURACY: -nan
LLC TIMELY PREFETCHES:          0 LATE PREFETCHES: 0 DROPPED PREFETCHES: 0
LLC PREFETCHES SAME FILL-ORIGIN LEVEL: 0 DIFFERENT FILL-ORIGIN LEVEL: 0
LLC AVERAGE MISS LATENCY: 125.993 cycles
LLC RQ	ACCESS:     609130	FORWARD:          0	MERGED:          0	TO_CACHE:     609129
LLC WQ	ACCESS:      38085	FORWARD:          1	MERGED:          0	TO_CACHE:      38085

LLC Dense regions hint to LLC: 0

RAW hits: 58204
Loads Generated: 12945760
Loads sent to L1D: 12887556
Stores Generated: 858602
Stores sent to L1D: 858601
Major fault: 0 Minor fault: 4120
Allocated PAGES: 4120

DRAM Statistics
 CHANNEL 0
 RQ ROW_BUFFER_HIT:     386908  ROW_BUFFER_MISS:     195938
 DBUS_CONGESTED:        205
 WQ ROW_BUFFER_HIT:      20898  ROW_BUFFER_MISS:      13718  FULL:          0

 AVG_CONGESTED_CYCLE: 4
 All warmup complete: 2
Channel 0 Bank busy for read cycles: 0
Channel 0 Bank busy for write cycles: 0
Channel 0
Rank 0
0banks busy for read cycles: 42184556
0banks busy for write cycles: 21798
1banks busy for read cycles: 34419452
1banks busy for write cycles: 4451348
2banks busy for read cycles: 5371339
2banks busy for write cycles: 868733
3banks busy for read cycles: 857185
3banks busy for write cycles: 134817
4banks busy for read cycles: 22684
4banks busy for write cycles: 21997
5banks busy for read cycles: 6900
5banks busy for write cycles: 5027
6banks busy for read cycles: 86294
6banks busy for write cycles: 1167
7banks busy for read cycles: 34041
7banks busy for write cycles: 1031
8banks busy for read cycles: 15506
8banks busy for write cycles: 7515

CPU 0 Branch Prediction Accuracy: 95.9006% MPKI: 3.75386 Average ROB Occupancy at Mispredict: 140.927
Branch types
NOT_BRANCH: 45421623 90.8432%
BRANCH_DIRECT_JUMP: 86244 0.172488%
BRANCH_INDIRECT: 0 0%
BRANCH_CONDITIONAL: 4321587 8.64317%
BRANCH_DIRECT_CALL: 85361 0.170722%
BRANCH_INDIRECT_CALL: 0 0%
BRANCH_RETURN: 85359 0.170718%
BRANCH_OTHER: 0 0%

DRAM PAGES: 1048576
Allocated PAGES: 4120
