
*** ChampSim Multicore Out-of-Order Simulator ***

Warmup Instructions: 50000000
Simulation Instructions: 50000000
Number of CPUs: 1
LLC sets: 2048
LLC ways: 16
Off-chip DRAM Size: 4096 MB Channels: 1 Width: 64-bit Data Rate: 6400 MT/s
CPU 0 runs traces/SPEC-CPU2017/450.soplex-247B.champsimtrace.xz
.xz
CPU 0 Bimodal branch predictor
BTB has LRU replacement policy
ITLB has LRU replacement policy
DTLB has LRU replacement policy
STLB has LRU replacement policy
L1I has LRU replacement policy
L1D has LRU replacement policy
L2C has LRU replacement policy
LLC has LRU replacement policy
Heartbeat CPU 0 instructions: 10000002 cycles: 3566372 heartbeat IPC: 2.80397 cumulative IPC: 2.80397 (Simulation time: 0 hr 5 min 36 sec) 
Heartbeat CPU 0 instructions: 20000000 cycles: 6808256 heartbeat IPC: 3.08463 cumulative IPC: 2.93761 (Simulation time: 0 hr 10 min 43 sec) 
Heartbeat CPU 0 instructions: 30000000 cycles: 10031756 heartbeat IPC: 3.10222 cumulative IPC: 2.9905 (Simulation time: 0 hr 16 min 24 sec) 
Heartbeat CPU 0 instructions: 40000000 cycles: 13256612 heartbeat IPC: 3.10091 cumulative IPC: 3.01736 (Simulation time: 0 hr 21 min 58 sec) 
Heartbeat CPU 0 instructions: 50000000 cycles: 16473096 heartbeat IPC: 3.10898 cumulative IPC: 3.03525 (Simulation time: 0 hr 27 min 27 sec) 

Warmup complete CPU 0 instructions: 50000004 cycles: 16473097 (Simulation time: 0 hr 27 min 27 sec) 

Heartbeat CPU 0 instructions: 60000000 cycles: 39384193 heartbeat IPC: 0.43647 cumulative IPC: 0.43647 (Simulation time: 0 hr 29 min 54 sec) 
Heartbeat CPU 0 instructions: 70000002 cycles: 63096388 heartbeat IPC: 0.421724 cumulative IPC: 0.42897 (Simulation time: 0 hr 32 min 32 sec) 
Heartbeat CPU 0 instructions: 80000000 cycles: 86282459 heartbeat IPC: 0.431293 cumulative IPC: 0.429742 (Simulation time: 0 hr 35 min 5 sec) 
Heartbeat CPU 0 instructions: 90000002 cycles: 110211056 heartbeat IPC: 0.41791 cumulative IPC: 0.426721 (Simulation time: 0 hr 37 min 50 sec) 
Heartbeat CPU 0 instructions: 100000000 cycles: 132490858 heartbeat IPC: 0.448837 cumulative IPC: 0.430968 (Simulation time: 0 hr 40 min 21 sec) 
Finished CPU 0 instructions: 50000000 cycles: 116017769 cumulative IPC: 0.430968 (Simulation time: 0 hr 40 min 21 sec) 

ChampSim completed all CPUs

Region of Interest Statistics

CPU 0 cumulative IPC: 0.430968 instructions: 50000000 cycles: 116017769
ITLB TOTAL     ACCESS:    8578887  HIT:    8578887  MISS:          0  HIT %:        100  MISS %:          0   MPKI: 0
ITLB LOAD TRANSLATION ACCESS:    8578887  HIT:    8578887  MISS:          0  HIT %:        100  MISS %:          0   MPKI: 0
ITLB PREFETCH  REQUESTED:          0  ISSUED:          0  USEFUL:          0  USELESS:          0
ITLB USEFUL LOAD PREFETCHES:          0 PREFETCH ISSUED TO LOWER LEVEL:          0  ACCURACY: -nan
ITLB TIMELY PREFETCHES:          0 LATE PREFETCHES: 0 DROPPED PREFETCHES: 0
ITLB PREFETCHES SAME FILL-ORIGIN LEVEL: 0 DIFFERENT FILL-ORIGIN LEVEL: 0
ITLB AVERAGE MISS LATENCY: -nan cycles
ITLB RQ	ACCESS:    9593045	FORWARD:          0	MERGED:    1014158	TO_CACHE:    8578887

DTLB TOTAL     ACCESS:    9801158  HIT:    9527289  MISS:     273869  HIT %:    97.2057  MISS %:    2.79425   MPKI: 5.47738
DTLB LOAD TRANSLATION ACCESS:    9801158  HIT:    9527289  MISS:     273869  HIT %:    97.2057  MISS %:    2.79425   MPKI: 5.47738
DTLB PREFETCH  REQUESTED:          0  ISSUED:          0  USEFUL:          0  USELESS:          0
DTLB USEFUL LOAD PREFETCHES:          0 PREFETCH ISSUED TO LOWER LEVEL:          0  ACCURACY: -nan
DTLB TIMELY PREFETCHES:          0 LATE PREFETCHES: 0 DROPPED PREFETCHES: 0
DTLB PREFETCHES SAME FILL-ORIGIN LEVEL: 0 DIFFERENT FILL-ORIGIN LEVEL: 0
DTLB AVERAGE MISS LATENCY: 12.8704 cycles
DTLB RQ	ACCESS:   11059559	FORWARD:          0	MERGED:    1215843	TO_CACHE:    9843716

STLB TOTAL     ACCESS:    3054761  HIT:    3011801  MISS:      42960  HIT %:    98.5937  MISS %:    1.40633   MPKI: 0.8592
STLB LOAD TRANSLATION ACCESS:     273869  HIT:     268291  MISS:       5578  HIT %:    97.9633  MISS %:    2.03674   MPKI: 0.11156
STLB TRANSLATION FROM L1D PREFETCHER ACCESS:    2780892  HIT:    2743510  MISS:      37382  HIT %:    98.6558  MISS %:    1.34424   MPKI: 0.74764
STLB PREFETCH  REQUESTED:          0  ISSUED:          0  USEFUL:      36756  USELESS:        628
STLB USEFUL LOAD PREFETCHES:      36756 PREFETCH ISSUED TO LOWER LEVEL:          0  ACCURACY: inf
STLB TIMELY PREFETCHES:      36756 LATE PREFETCHES: 71 DROPPED PREFETCHES: 0
STLB PREFETCHES SAME FILL-ORIGIN LEVEL: 0 DIFFERENT FILL-ORIGIN LEVEL: 0
STLB AVERAGE MISS LATENCY: 131.751 cycles
STLB RQ	ACCESS:    4932086	FORWARD:          0	MERGED:    1876717	TO_CACHE:    3055369

STLB Hit, L1D data hit: 0
STLB Hit, L2C data hit: 0
STLB Hit, LLC data hit: 0
STLB Hit, LLC data miss: 0
STLB STLB hints to L2: 0
L1D TOTAL     ACCESS:   14445100  HIT:   10464024  MISS:    3981076  HIT %:      72.44  MISS %:      27.56   MPKI: 79.6215
L1D LOAD      ACCESS:    7901251  HIT:    6740859  MISS:    1160392  HIT %:    85.3138  MISS %:    14.6862   MPKI: 23.2078
L1D RFO       ACCESS:    2173878  HIT:    1877120  MISS:     296758  HIT %:    86.3489  MISS %:    13.6511   MPKI: 5.93516
L1D PREFETCH  ACCESS:    4369971  HIT:    1846045  MISS:    2523926  HIT %:    42.2439  MISS %:    57.7561   MPKI: 50.4785
AGUS PREFETCH L1 MISS: 0
L1D PREFETCH  REQUESTED:   10496937  ISSUED:    9316950  USEFUL:    1163667  USELESS:    1360386
L1D USEFUL LOAD PREFETCHES:    1163667 PREFETCH ISSUED TO LOWER LEVEL:    2665051  ACCURACY: 43.664
L1D TIMELY PREFETCHES:    1163667 LATE PREFETCHES: 141121 DROPPED PREFETCHES: 0
L1D PREFETCHES SAME FILL-ORIGIN LEVEL: 2665051 DIFFERENT FILL-ORIGIN LEVEL: 0
L1D AVERAGE MISS LATENCY: 165.266 cycles
L1D RQ	ACCESS:   14859330	FORWARD:          0	MERGED:    6836557	TO_CACHE:    8017666
L1D WQ	ACCESS:    3057587	FORWARD:       5557	MERGED:      15694	TO_CACHE:    3041893
L1D PQ	ACCESS:    4658733	FORWARD:          0	MERGED:         66	TO_CACHE:    4658217

L1D UNIQUE REGIONS ACCESSED: 0
L1D REGIONS CONFLICTS: 0
L1D Cross Page Prefetch Requests: 3005573
L1D Same Page Prefetch Requests: 6369221
L1D ROI Sum of L1D PQ occupancy: 112157611
L1D PREFETCHES PUSHED FROM L2C: 0
L1I TOTAL     ACCESS:    9593010  HIT:    9592900  MISS:        110  HIT %:    99.9989  MISS %: 0.00114667   MPKI: 0.0022
L1I LOAD      ACCESS:    9593010  HIT:    9592900  MISS:        110  HIT %:    99.9989  MISS %: 0.00114667   MPKI: 0.0022
L1I PREFETCH  REQUESTED:          0  ISSUED:          0  USEFUL:          0  USELESS:          0
L1I USEFUL LOAD PREFETCHES:          0 PREFETCH ISSUED TO LOWER LEVEL:          0  ACCURACY: -nan
L1I TIMELY PREFETCHES:          0 LATE PREFETCHES: 0 DROPPED PREFETCHES: 0
L1I PREFETCHES SAME FILL-ORIGIN LEVEL: 0 DIFFERENT FILL-ORIGIN LEVEL: 0
L1I AVERAGE MISS LATENCY: 233.755 cycles
L1I RQ	ACCESS:   13832994	FORWARD:          0	MERGED:    4239949	TO_CACHE:    9593045

BTB TOTAL     ACCESS:    6809348  HIT:    6808760  MISS:        588  HIT %:    99.9914  MISS %: 0.00863519   MPKI: 0.01176
BTB BRANCH_DIRECT_JUMP	ACCESS:      51581  HIT:      51508  MISS:         73
BTB BRANCH_INDIRECT	ACCESS:         18  HIT:         11  MISS:          7
BTB BRANCH_CONDITIONAL	ACCESS:    6754143  HIT:    6753939  MISS:        204
BTB BRANCH_DIRECT_CALL	ACCESS:       1703  HIT:       1632  MISS:         71
BTB BRANCH_INDIRECT_CALL	ACCESS:        102  HIT:         81  MISS:         21
BTB BRANCH_RETURN	ACCESS:       1801  HIT:       1589  MISS:        212
BTB BRANCH_OTHER ACCESS:          0  HIT:          0  MISS:          0

L2C TOTAL     ACCESS:    5116149  HIT:    2477904  MISS:    2638245  HIT %:     48.433  MISS %:     51.567   MPKI: 52.7649
L2C LOAD      ACCESS:    1019276  HIT:     462020  MISS:     557256  HIT %:    45.3283  MISS %:    54.6717   MPKI: 11.1451
L2C DATA LOAD MPKI: 11.1429
L2C INSTRUCTION LOAD MPKI: 0.0022
L2C RFO       ACCESS:     296747  HIT:      25647  MISS:     271100  HIT %:    8.64272  MISS %:    91.3573   MPKI: 5.422
L2C PREFETCH  ACCESS:    2664928  HIT:     866919  MISS:    1798009  HIT %:    32.5307  MISS %:    67.4693   MPKI: 35.9602
AGUS PREFETCH L1 MISS: 0
L2C DATA PREFETCH MPKI: 35.9602
L2C INSTRUCTION PREFETCH MPKI: 0
L2C WRITEBACK ACCESS:    1092008  HIT:    1091969  MISS:         39  HIT %:    99.9964  MISS %:  0.0035714   MPKI: 0.00078
L2C LOAD TRANSLATION ACCESS:       5674  HIT:       3925  MISS:       1749  HIT %:    69.1752  MISS %:    30.8248   MPKI: 0.03498
L2C TRANSLATION FROM L1D PREFETCHER ACCESS:      37516  HIT:      27424  MISS:      10092  HIT %:    73.0995  MISS %:    26.9005   MPKI: 0.20184
L2C PREFETCH  REQUESTED:          0  ISSUED:          0  USEFUL:     149034  USELESS:    1666326
L2C USEFUL LOAD PREFETCHES:     149034 PREFETCH ISSUED TO LOWER LEVEL:    1798007  ACCURACY: 8.28884
L2C TIMELY PREFETCHES:     149034 LATE PREFETCHES: 0 DROPPED PREFETCHES: 0
L2C PREFETCHES SAME FILL-ORIGIN LEVEL: 0 DIFFERENT FILL-ORIGIN LEVEL: 0
L2C AVERAGE MISS LATENCY: 227.59 cycles
L2C RQ	ACCESS:    1359327	FORWARD:          0	MERGED:          0	TO_CACHE:    1359217
L2C WQ	ACCESS:    1092009	FORWARD:        235	MERGED:          0	TO_CACHE:    1092009
L2C PQ	ACCESS:    2665051	FORWARD:          0	MERGED:          0	TO_CACHE:    2664926

L2C Instructions Evicting Data 110
L2C Translations Evicting Data 11760
L2C Data Evicting Data 2614399
L2C Instructions Evicting Instructions 0
L2C Translations Evicting Instructions 0
L2C Data Evicting Instructions 107
L2C Instructions Evicting Translations 0
L2C Translations Evicting Translations 81
L2C Data Evicting Translations 11749
L2C Dense regions hint from L2: 0
PSCL5 TOTAL     ACCESS:      42960  HIT:      42960  MISS:          0  HIT %:        100  MISS %:          0   MPKI: 0
PSCL5 LOAD TRANSLATION ACCESS:       5507  HIT:       5507  MISS:          0  HIT %:        100  MISS %:          0   MPKI: 0
PSCL5 TRANSLATION FROM L1D PREFETCHER ACCESS:      37453  HIT:      37453  MISS:          0  HIT %:        100  MISS %:          0   MPKI: 0
PSCL5 PREFETCH  REQUESTED:          0  ISSUED:          0  USEFUL:          0  USELESS:          0
PSCL5 USEFUL LOAD PREFETCHES:          0 PREFETCH ISSUED TO LOWER LEVEL:          0  ACCURACY: -nan
PSCL5 TIMELY PREFETCHES:          0 LATE PREFETCHES: 0 DROPPED PREFETCHES: 0
PSCL5 PREFETCHES SAME FILL-ORIGIN LEVEL: 0 DIFFERENT FILL-ORIGIN LEVEL: 0

PSCL4 TOTAL     ACCESS:      42960  HIT:      42960  MISS:          0  HIT %:        100  MISS %:          0   MPKI: 0
PSCL4 LOAD TRANSLATION ACCESS:       5507  HIT:       5507  MISS:          0  HIT %:        100  MISS %:          0   MPKI: 0
PSCL4 TRANSLATION FROM L1D PREFETCHER ACCESS:      37453  HIT:      37453  MISS:          0  HIT %:        100  MISS %:          0   MPKI: 0
PSCL4 PREFETCH  REQUESTED:          0  ISSUED:          0  USEFUL:          0  USELESS:          0
PSCL4 USEFUL LOAD PREFETCHES:          0 PREFETCH ISSUED TO LOWER LEVEL:          0  ACCURACY: -nan
PSCL4 TIMELY PREFETCHES:          0 LATE PREFETCHES: 0 DROPPED PREFETCHES: 0
PSCL4 PREFETCHES SAME FILL-ORIGIN LEVEL: 0 DIFFERENT FILL-ORIGIN LEVEL: 0

PSCL3 TOTAL     ACCESS:      42960  HIT:      42960  MISS:          0  HIT %:        100  MISS %:          0   MPKI: 0
PSCL3 LOAD TRANSLATION ACCESS:       5507  HIT:       5507  MISS:          0  HIT %:        100  MISS %:          0   MPKI: 0
PSCL3 TRANSLATION FROM L1D PREFETCHER ACCESS:      37453  HIT:      37453  MISS:          0  HIT %:        100  MISS %:          0   MPKI: 0
PSCL3 PREFETCH  REQUESTED:          0  ISSUED:          0  USEFUL:          0  USELESS:          0
PSCL3 USEFUL LOAD PREFETCHES:          0 PREFETCH ISSUED TO LOWER LEVEL:          0  ACCURACY: -nan
PSCL3 TIMELY PREFETCHES:          0 LATE PREFETCHES: 0 DROPPED PREFETCHES: 0
PSCL3 PREFETCHES SAME FILL-ORIGIN LEVEL: 0 DIFFERENT FILL-ORIGIN LEVEL: 0

PSCL2 TOTAL     ACCESS:      42960  HIT:      42726  MISS:        234  HIT %:    99.4553  MISS %:   0.544693   MPKI: 0.00468
PSCL2 LOAD TRANSLATION ACCESS:       5570  HIT:       5336  MISS:        234  HIT %:    95.7989  MISS %:    4.20108   MPKI: 0.00468
PSCL2 TRANSLATION FROM L1D PREFETCHER ACCESS:      37390  HIT:      37390  MISS:          0  HIT %:        100  MISS %:          0   MPKI: 0
PSCL2 PREFETCH  REQUESTED:          0  ISSUED:          0  USEFUL:          0  USELESS:          0
PSCL2 USEFUL LOAD PREFETCHES:          0 PREFETCH ISSUED TO LOWER LEVEL:          0  ACCURACY: -nan
PSCL2 TIMELY PREFETCHES:          0 LATE PREFETCHES: 0 DROPPED PREFETCHES: 0
PSCL2 PREFETCHES SAME FILL-ORIGIN LEVEL: 0 DIFFERENT FILL-ORIGIN LEVEL: 0

LLC TOTAL     ACCESS:    3427517  HIT:    1295726  MISS:    2131791  HIT %:    37.8036  MISS %:    62.1964   MPKI: 42.6358
LLC LOAD      ACCESS:     557248  HIT:     133913  MISS:     423335  HIT %:    24.0311  MISS %:    75.9689   MPKI: 8.4667
LLC RFO       ACCESS:     271099  HIT:      68816  MISS:     202283  HIT %:    25.3841  MISS %:    74.6159   MPKI: 4.04566
LLC PREFETCH  ACCESS:    1797998  HIT:     302118  MISS:    1495880  HIT %:     16.803  MISS %:     83.197   MPKI: 29.9176
AGUS PREFETCH L1 MISS: 0
LLC WRITEBACK ACCESS:     789331  HIT:     789116  MISS:        215  HIT %:    99.9728  MISS %:  0.0272383   MPKI: 0.0043
LLC LOAD TRANSLATION ACCESS:       1749  HIT:        102  MISS:       1647  HIT %:     5.8319  MISS %:    94.1681   MPKI: 0.03294
LLC TRANSLATION FROM L1D PREFETCHER ACCESS:      10092  HIT:       1661  MISS:       8431  HIT %:    16.4586  MISS %:    83.5414   MPKI: 0.16862
LLC PREFETCH  REQUESTED:          0  ISSUED:          0  USEFUL:      72182  USELESS:    1449569
LLC USEFUL LOAD PREFETCHES:      72182 PREFETCH ISSUED TO LOWER LEVEL:    1495879  ACCURACY: 4.82539
LLC TIMELY PREFETCHES:      72182 LATE PREFETCHES: 0 DROPPED PREFETCHES: 0
LLC PREFETCHES SAME FILL-ORIGIN LEVEL: 0 DIFFERENT FILL-ORIGIN LEVEL: 0
LLC AVERAGE MISS LATENCY: 244.526 cycles
LLC RQ	ACCESS:     840201	FORWARD:          0	MERGED:          0	TO_CACHE:     840192
LLC WQ	ACCESS:     789332	FORWARD:         20	MERGED:          0	TO_CACHE:     789332
LLC PQ	ACCESS:    1798007	FORWARD:          0	MERGED:          0	TO_CACHE:    1797996

LLC Dense regions hint to LLC: 0

RAW hits: 149241
Loads Generated: 15008574
Loads sent to L1D: 14859330
Stores Generated: 3057587
Stores sent to L1D: 3057587
Major fault: 0 Minor fault: 7959
Allocated PAGES: 7959

stream: 
stream:times selected: 5597387
stream:pref_reqs: 5469534
stream:pref_reqs_filtered_out: 2004908
stream:pref_filled: 1632411
stream:pref_useful: 391449
stream:pref_late: 84314
stream:misses: 41484
stream:misses_by_poll: 0

CS: 
CS:times selected: 1777267
CS:pref_reqs: 5246766
CS:pref_reqs_filtered_out: 3306158
CS:pref_filled: 1197141
CS:pref_useful: 960071
CS:pref_late: 57979
CS:misses: 69695
CS:misses_by_poll: 4148

CPLX: 
CPLX:times selected: 3799317
CPLX:pref_reqs: 548416
CPLX:pref_reqs_filtered_out: 402830
CPLX:pref_filled: 67149
CPLX:pref_useful: 19562
CPLX:pref_late: 3955
CPLX:misses: 208895
CPLX:misses_by_poll: 100

ISB: 
ISB:total access:17181633
ISB:times selected:4487532
ISB:canary counter:0
ISB:pref_reqs: 10107706
ISB:pref_reqs_filtered_out: 3528257
ISB:pref_filled: 2427021
ISB:pref_useful: 1032411
ISB:pref_late: 32138
ISB:misses: 1901915
ISB:misses_by_poll: 13892
ISB:Stream end: 3540419
ISB:No Prediction: 1109858 6.45956
ISB:No translation: 3595572097 20926.8
ISB:Predictions: 4499186 26.186

NL_L1: 
NL:times selected: 16858
NL:pref_reqs: 16858
NL:pref_reqs_filtered_out: 4212
NL:pref_filled: 5915
NL:pref_useful: 1282
NL:pref_late: 140
NL:misses: 9491
NL:misses_by_poll: 0

Coverage: 50.0705
total selections: 15678361
total_filled: 2523926
total_useful: 1163667
total_late: 185951
total_polluted: 18140
total_misses_after_warmup: 1276806
conflicts: 172678

test: 0
Prefetcher final stats
Training Unit Size: 336
Addr table size: 182927 182933
Stream divergence: 549926 3.20066
Stream divergence -- new stream: 0
--------------------------Training unit table ------------------------

DRAM Statistics
 CHANNEL 0
 RQ ROW_BUFFER_HIT:     668761  ROW_BUFFER_MISS:    1462538
 DBUS_CONGESTED:        533
 WQ ROW_BUFFER_HIT:     140507  ROW_BUFFER_MISS:     507449  FULL:          0

 AVG_CONGESTED_CYCLE: 5
 All warmup complete: 2
Channel 0 Bank busy for read cycles: 0
Channel 0 Bank busy for write cycles: 0
Channel 0
Rank 0
0banks busy for read cycles: 16899142
0banks busy for write cycles: 27913
1banks busy for read cycles: 19824115
1banks busy for write cycles: 4022273
2banks busy for read cycles: 12432959
2banks busy for write cycles: 1961926
3banks busy for read cycles: 10159892
3banks busy for write cycles: 1207166
4banks busy for read cycles: 9515199
4banks busy for write cycles: 801901
5banks busy for read cycles: 8411034
5banks busy for write cycles: 567154
6banks busy for read cycles: 7464854
6banks busy for write cycles: 481363
7banks busy for read cycles: 5495208
7banks busy for write cycles: 1496035
8banks busy for read cycles: 2851812
8banks busy for write cycles: 12397824

CPU 0 Branch Prediction Accuracy: 94.9774% MPKI: 9.10314 Average ROB Occupancy at Mispredict: 44.652
Branch types
NOT_BRANCH: 40937845 81.8757%
BRANCH_DIRECT_JUMP: 51581 0.103162%
BRANCH_INDIRECT: 18 3.6e-05%
BRANCH_CONDITIONAL: 9006978 18.014%
BRANCH_DIRECT_CALL: 1703 0.003406%
BRANCH_INDIRECT_CALL: 102 0.000204%
BRANCH_RETURN: 1801 0.003602%
BRANCH_OTHER: 0 0%

DRAM PAGES: 1048576
Allocated PAGES: 7959
