
*** ChampSim Multicore Out-of-Order Simulator ***

Warmup Instructions: 50000000
Simulation Instructions: 50000000
Number of CPUs: 1
LLC sets: 2048
LLC ways: 16
Off-chip DRAM Size: 4096 MB Channels: 1 Width: 64-bit Data Rate: 6400 MT/s
CPU 0 runs traces/SPEC-CPU2017/450.soplex-247B.champsimtrace.xz
.xz
CPU 0 Bimodal branch predictor
BTB has LRU replacement policy
ITLB has LRU replacement policy
DTLB has LRU replacement policy
STLB has LRU replacement policy
L1I has LRU replacement policy
L1D has LRU replacement policy
L2C has LRU replacement policy
LLC has LRU replacement policy
Heartbeat CPU 0 instructions: 10000002 cycles: 3558763 heartbeat IPC: 2.80997 cumulative IPC: 2.80997 (Simulation time: 0 hr 4 min 12 sec) 
Heartbeat CPU 0 instructions: 20000000 cycles: 6798567 heartbeat IPC: 3.08661 cumulative IPC: 2.9418 (Simulation time: 0 hr 7 min 50 sec) 
Heartbeat CPU 0 instructions: 30000000 cycles: 10024679 heartbeat IPC: 3.09971 cumulative IPC: 2.99261 (Simulation time: 0 hr 11 min 26 sec) 
Heartbeat CPU 0 instructions: 40000000 cycles: 13252001 heartbeat IPC: 3.09854 cumulative IPC: 3.01841 (Simulation time: 0 hr 14 min 57 sec) 
Heartbeat CPU 0 instructions: 50000000 cycles: 16470141 heartbeat IPC: 3.10738 cumulative IPC: 3.0358 (Simulation time: 0 hr 18 min 28 sec) 

Warmup complete CPU 0 instructions: 50000004 cycles: 16470142 (Simulation time: 0 hr 18 min 28 sec) 

Heartbeat CPU 0 instructions: 60000000 cycles: 40922522 heartbeat IPC: 0.408958 cumulative IPC: 0.408958 (Simulation time: 0 hr 19 min 32 sec) 
Heartbeat CPU 0 instructions: 70000000 cycles: 66805403 heartbeat IPC: 0.386356 cumulative IPC: 0.397336 (Simulation time: 0 hr 20 min 37 sec) 
Heartbeat CPU 0 instructions: 80000000 cycles: 92098433 heartbeat IPC: 0.395366 cumulative IPC: 0.396677 (Simulation time: 0 hr 21 min 43 sec) 
Heartbeat CPU 0 instructions: 90000002 cycles: 118019174 heartbeat IPC: 0.385792 cumulative IPC: 0.393898 (Simulation time: 0 hr 22 min 50 sec) 
Heartbeat CPU 0 instructions: 100000000 cycles: 142185470 heartbeat IPC: 0.413799 cumulative IPC: 0.397724 (Simulation time: 0 hr 23 min 53 sec) 
Finished CPU 0 instructions: 50000000 cycles: 125715336 cumulative IPC: 0.397724 (Simulation time: 0 hr 23 min 53 sec) 

ChampSim completed all CPUs

Region of Interest Statistics

CPU 0 cumulative IPC: 0.397724 instructions: 50000000 cycles: 125715336
ITLB TOTAL     ACCESS:    8599392  HIT:    8599392  MISS:          0  HIT %:        100  MISS %:          0   MPKI: 0
ITLB LOAD TRANSLATION ACCESS:    8599392  HIT:    8599392  MISS:          0  HIT %:        100  MISS %:          0   MPKI: 0
ITLB PREFETCH  REQUESTED:          0  ISSUED:          0  USEFUL:          0  USELESS:          0
ITLB USEFUL LOAD PREFETCHES:          0 PREFETCH ISSUED TO LOWER LEVEL:          0  ACCURACY: -nan
ITLB TIMELY PREFETCHES:          0 LATE PREFETCHES: 0 DROPPED PREFETCHES: 0
ITLB PREFETCHES SAME FILL-ORIGIN LEVEL: 0 DIFFERENT FILL-ORIGIN LEVEL: 0
ITLB AVERAGE MISS LATENCY: -nan cycles
ITLB RQ	ACCESS:    9611915	FORWARD:          0	MERGED:    1012523	TO_CACHE:    8599392

DTLB TOTAL     ACCESS:    9748596  HIT:    9474715  MISS:     273881  HIT %:    97.1906  MISS %:    2.80944   MPKI: 5.47762
DTLB LOAD TRANSLATION ACCESS:    9748596  HIT:    9474715  MISS:     273881  HIT %:    97.1906  MISS %:    2.80944   MPKI: 5.47762
DTLB PREFETCH  REQUESTED:          0  ISSUED:          0  USEFUL:          0  USELESS:          0
DTLB USEFUL LOAD PREFETCHES:          0 PREFETCH ISSUED TO LOWER LEVEL:          0  ACCURACY: -nan
DTLB TIMELY PREFETCHES:          0 LATE PREFETCHES: 0 DROPPED PREFETCHES: 0
DTLB PREFETCHES SAME FILL-ORIGIN LEVEL: 0 DIFFERENT FILL-ORIGIN LEVEL: 0
DTLB AVERAGE MISS LATENCY: 17.9438 cycles
DTLB RQ	ACCESS:   11022972	FORWARD:          0	MERGED:    1227936	TO_CACHE:    9795036

STLB TOTAL     ACCESS:    2493851  HIT:    2451526  MISS:      42325  HIT %:    98.3028  MISS %:    1.69717   MPKI: 0.8465
STLB LOAD TRANSLATION ACCESS:     273881  HIT:     250802  MISS:      23079  HIT %:    91.5733  MISS %:    8.42665   MPKI: 0.46158
STLB TRANSLATION FROM L1D PREFETCHER ACCESS:    2219970  HIT:    2200724  MISS:      19246  HIT %:    99.1331  MISS %:   0.866949   MPKI: 0.38492
STLB PREFETCH  REQUESTED:          0  ISSUED:          0  USEFUL:      18765  USELESS:        490
STLB USEFUL LOAD PREFETCHES:      18765 PREFETCH ISSUED TO LOWER LEVEL:          0  ACCURACY: inf
STLB TIMELY PREFETCHES:      18765 LATE PREFETCHES: 606 DROPPED PREFETCHES: 0
STLB PREFETCHES SAME FILL-ORIGIN LEVEL: 0 DIFFERENT FILL-ORIGIN LEVEL: 0
STLB AVERAGE MISS LATENCY: 103.746 cycles
STLB RQ	ACCESS:    3388457	FORWARD:          0	MERGED:     893718	TO_CACHE:    2494739

STLB Hit, L1D data hit: 0
STLB Hit, L2C data hit: 0
STLB Hit, LLC data hit: 0
STLB Hit, LLC data miss: 0
STLB STLB hints to L2: 0
L1D TOTAL     ACCESS:   12681411  HIT:    8996810  MISS:    3684601  HIT %:    70.9449  MISS %:    29.0551   MPKI: 73.692
L1D LOAD      ACCESS:    7825857  HIT:    6432099  MISS:    1393758  HIT %:    82.1903  MISS %:    17.8097   MPKI: 27.8752
L1D RFO       ACCESS:    2174965  HIT:    1878565  MISS:     296400  HIT %:    86.3722  MISS %:    13.6278   MPKI: 5.928
L1D PREFETCH  ACCESS:    2680589  HIT:     686146  MISS:    1994443  HIT %:    25.5968  MISS %:    74.4032   MPKI: 39.8889
AGUS PREFETCH L1 MISS: 0
L1D PREFETCH  REQUESTED:    6418578  ISSUED:    6237082  USEFUL:     921035  USELESS:    1073414
L1D USEFUL LOAD PREFETCHES:     921035 PREFETCH ISSUED TO LOWER LEVEL:    2196205  ACCURACY: 41.9376
L1D TIMELY PREFETCHES:     921035 LATE PREFETCHES: 201757 DROPPED PREFETCHES: 0
L1D PREFETCHES SAME FILL-ORIGIN LEVEL: 2196205 DIFFERENT FILL-ORIGIN LEVEL: 0
L1D AVERAGE MISS LATENCY: 165.16 cycles
L1D RQ	ACCESS:   14859398	FORWARD:          0	MERGED:    6873300	TO_CACHE:    7981053
L1D WQ	ACCESS:    3057587	FORWARD:       5465	MERGED:      15668	TO_CACHE:    3041919
L1D PQ	ACCESS:    3122506	FORWARD:          0	MERGED:       7510	TO_CACHE:    3114576

L1D UNIQUE REGIONS ACCESSED: 0
L1D REGIONS CONFLICTS: 0
L1D Cross Page Prefetch Requests: 744982
L1D Same Page Prefetch Requests: 5611332
L1D ROI Sum of L1D PQ occupancy: 62186592
L1D PREFETCHES PUSHED FROM L2C: 0
L1I TOTAL     ACCESS:    9611880  HIT:    9611770  MISS:        110  HIT %:    99.9989  MISS %: 0.00114442   MPKI: 0.0022
L1I LOAD      ACCESS:    9611880  HIT:    9611770  MISS:        110  HIT %:    99.9989  MISS %: 0.00114442   MPKI: 0.0022
L1I PREFETCH  REQUESTED:          0  ISSUED:          0  USEFUL:          0  USELESS:          0
L1I USEFUL LOAD PREFETCHES:          0 PREFETCH ISSUED TO LOWER LEVEL:          0  ACCURACY: -nan
L1I TIMELY PREFETCHES:          0 LATE PREFETCHES: 0 DROPPED PREFETCHES: 0
L1I PREFETCHES SAME FILL-ORIGIN LEVEL: 0 DIFFERENT FILL-ORIGIN LEVEL: 0
L1I AVERAGE MISS LATENCY: 240.118 cycles
L1I RQ	ACCESS:   13869249	FORWARD:          0	MERGED:    4257334	TO_CACHE:    9611915

BTB TOTAL     ACCESS:    6809348  HIT:    6808760  MISS:        588  HIT %:    99.9914  MISS %: 0.00863519   MPKI: 0.01176
BTB BRANCH_DIRECT_JUMP	ACCESS:      51581  HIT:      51508  MISS:         73
BTB BRANCH_INDIRECT	ACCESS:         18  HIT:         11  MISS:          7
BTB BRANCH_CONDITIONAL	ACCESS:    6754143  HIT:    6753939  MISS:        204
BTB BRANCH_DIRECT_CALL	ACCESS:       1703  HIT:       1632  MISS:         71
BTB BRANCH_INDIRECT_CALL	ACCESS:        102  HIT:         81  MISS:         21
BTB BRANCH_RETURN	ACCESS:       1801  HIT:       1589  MISS:        212
BTB BRANCH_OTHER ACCESS:          0  HIT:          0  MISS:          0

L2C TOTAL     ACCESS:    4814962  HIT:    2204617  MISS:    2610345  HIT %:    45.7868  MISS %:    54.2132   MPKI: 52.2069
L2C LOAD      ACCESS:    1191927  HIT:     472660  MISS:     719267  HIT %:    39.6551  MISS %:    60.3449   MPKI: 14.3853
L2C DATA LOAD MPKI: 14.3831
L2C INSTRUCTION LOAD MPKI: 0.0022
L2C RFO       ACCESS:     296388  HIT:      26662  MISS:     269726  HIT %:    8.99564  MISS %:    91.0044   MPKI: 5.39452
L2C PREFETCH  ACCESS:    2196137  HIT:     586397  MISS:    1609740  HIT %:    26.7013  MISS %:    73.2987   MPKI: 32.1948
AGUS PREFETCH L1 MISS: 0
L2C DATA PREFETCH MPKI: 32.1948
L2C INSTRUCTION PREFETCH MPKI: 0
L2C WRITEBACK ACCESS:    1087957  HIT:    1087918  MISS:         39  HIT %:    99.9964  MISS %:  0.0035847   MPKI: 0.00078
L2C LOAD TRANSLATION ACCESS:      22658  HIT:      16825  MISS:       5833  HIT %:    74.2563  MISS %:    25.7437   MPKI: 0.11666
L2C TRANSLATION FROM L1D PREFETCHER ACCESS:      19895  HIT:      14155  MISS:       5740  HIT %:    71.1485  MISS %:    28.8515   MPKI: 0.1148
L2C PREFETCH  REQUESTED:          0  ISSUED:          0  USEFUL:     135657  USELESS:    1487013
L2C USEFUL LOAD PREFETCHES:     135657 PREFETCH ISSUED TO LOWER LEVEL:    1609739  ACCURACY: 8.42727
L2C TIMELY PREFETCHES:     135657 LATE PREFETCHES: 0 DROPPED PREFETCHES: 0
L2C PREFETCHES SAME FILL-ORIGIN LEVEL: 0 DIFFERENT FILL-ORIGIN LEVEL: 0
L2C AVERAGE MISS LATENCY: 212.8 cycles
L2C RQ	ACCESS:    1531062	FORWARD:          0	MERGED:          0	TO_CACHE:    1530872
L2C WQ	ACCESS:    1087958	FORWARD:        259	MERGED:          0	TO_CACHE:    1087958
L2C PQ	ACCESS:    2196205	FORWARD:          0	MERGED:          0	TO_CACHE:    2196136

L2C Instructions Evicting Data 110
L2C Translations Evicting Data 11490
L2C Data Evicting Data 2587031
L2C Instructions Evicting Instructions 0
L2C Translations Evicting Instructions 0
L2C Data Evicting Instructions 107
L2C Instructions Evicting Translations 0
L2C Translations Evicting Translations 83
L2C Data Evicting Translations 11485
L2C Dense regions hint from L2: 0
PSCL5 TOTAL     ACCESS:      42325  HIT:      42325  MISS:          0  HIT %:        100  MISS %:          0   MPKI: 0
PSCL5 LOAD TRANSLATION ACCESS:      22473  HIT:      22473  MISS:          0  HIT %:        100  MISS %:          0   MPKI: 0
PSCL5 TRANSLATION FROM L1D PREFETCHER ACCESS:      19852  HIT:      19852  MISS:          0  HIT %:        100  MISS %:          0   MPKI: 0
PSCL5 PREFETCH  REQUESTED:          0  ISSUED:          0  USEFUL:          0  USELESS:          0
PSCL5 USEFUL LOAD PREFETCHES:          0 PREFETCH ISSUED TO LOWER LEVEL:          0  ACCURACY: -nan
PSCL5 TIMELY PREFETCHES:          0 LATE PREFETCHES: 0 DROPPED PREFETCHES: 0
PSCL5 PREFETCHES SAME FILL-ORIGIN LEVEL: 0 DIFFERENT FILL-ORIGIN LEVEL: 0

PSCL4 TOTAL     ACCESS:      42325  HIT:      42325  MISS:          0  HIT %:        100  MISS %:          0   MPKI: 0
PSCL4 LOAD TRANSLATION ACCESS:      22473  HIT:      22473  MISS:          0  HIT %:        100  MISS %:          0   MPKI: 0
PSCL4 TRANSLATION FROM L1D PREFETCHER ACCESS:      19852  HIT:      19852  MISS:          0  HIT %:        100  MISS %:          0   MPKI: 0
PSCL4 PREFETCH  REQUESTED:          0  ISSUED:          0  USEFUL:          0  USELESS:          0
PSCL4 USEFUL LOAD PREFETCHES:          0 PREFETCH ISSUED TO LOWER LEVEL:          0  ACCURACY: -nan
PSCL4 TIMELY PREFETCHES:          0 LATE PREFETCHES: 0 DROPPED PREFETCHES: 0
PSCL4 PREFETCHES SAME FILL-ORIGIN LEVEL: 0 DIFFERENT FILL-ORIGIN LEVEL: 0

PSCL3 TOTAL     ACCESS:      42325  HIT:      42325  MISS:          0  HIT %:        100  MISS %:          0   MPKI: 0
PSCL3 LOAD TRANSLATION ACCESS:      22473  HIT:      22473  MISS:          0  HIT %:        100  MISS %:          0   MPKI: 0
PSCL3 TRANSLATION FROM L1D PREFETCHER ACCESS:      19852  HIT:      19852  MISS:          0  HIT %:        100  MISS %:          0   MPKI: 0
PSCL3 PREFETCH  REQUESTED:          0  ISSUED:          0  USEFUL:          0  USELESS:          0
PSCL3 USEFUL LOAD PREFETCHES:          0 PREFETCH ISSUED TO LOWER LEVEL:          0  ACCURACY: -nan
PSCL3 TIMELY PREFETCHES:          0 LATE PREFETCHES: 0 DROPPED PREFETCHES: 0
PSCL3 PREFETCHES SAME FILL-ORIGIN LEVEL: 0 DIFFERENT FILL-ORIGIN LEVEL: 0

PSCL2 TOTAL     ACCESS:      42325  HIT:      42093  MISS:        232  HIT %:    99.4519  MISS %:   0.548139   MPKI: 0.00464
PSCL2 LOAD TRANSLATION ACCESS:      22516  HIT:      22284  MISS:        232  HIT %:    98.9696  MISS %:    1.03038   MPKI: 0.00464
PSCL2 TRANSLATION FROM L1D PREFETCHER ACCESS:      19809  HIT:      19809  MISS:          0  HIT %:        100  MISS %:          0   MPKI: 0
PSCL2 PREFETCH  REQUESTED:          0  ISSUED:          0  USEFUL:          0  USELESS:          0
PSCL2 USEFUL LOAD PREFETCHES:          0 PREFETCH ISSUED TO LOWER LEVEL:          0  ACCURACY: -nan
PSCL2 TIMELY PREFETCHES:          0 LATE PREFETCHES: 0 DROPPED PREFETCHES: 0
PSCL2 PREFETCHES SAME FILL-ORIGIN LEVEL: 0 DIFFERENT FILL-ORIGIN LEVEL: 0

LLC TOTAL     ACCESS:    3397621  HIT:    1255482  MISS:    2142139  HIT %:    36.9518  MISS %:    63.0482   MPKI: 42.8428
LLC LOAD      ACCESS:     719259  HIT:     142351  MISS:     576908  HIT %:    19.7913  MISS %:    80.2087   MPKI: 11.5382
LLC RFO       ACCESS:     269725  HIT:      67546  MISS:     202179  HIT %:    25.0425  MISS %:    74.9575   MPKI: 4.04358
LLC PREFETCH  ACCESS:    1609731  HIT:     256822  MISS:    1352909  HIT %:    15.9543  MISS %:    84.0457   MPKI: 27.0582
AGUS PREFETCH L1 MISS: 0
LLC WRITEBACK ACCESS:     787333  HIT:     787153  MISS:        180  HIT %:    99.9771  MISS %:   0.022862   MPKI: 0.0036
LLC LOAD TRANSLATION ACCESS:       5833  HIT:        848  MISS:       4985  HIT %:     14.538  MISS %:     85.462   MPKI: 0.0997
LLC TRANSLATION FROM L1D PREFETCHER ACCESS:       5740  HIT:        762  MISS:       4978  HIT %:    13.2753  MISS %:    86.7247   MPKI: 0.09956
LLC PREFETCH  REQUESTED:          0  ISSUED:          0  USEFUL:      66816  USELESS:    1307832
LLC USEFUL LOAD PREFETCHES:      66816 PREFETCH ISSUED TO LOWER LEVEL:    1352908  ACCURACY: 4.9387
LLC TIMELY PREFETCHES:      66816 LATE PREFETCHES: 0 DROPPED PREFETCHES: 0
LLC PREFETCHES SAME FILL-ORIGIN LEVEL: 0 DIFFERENT FILL-ORIGIN LEVEL: 0
LLC AVERAGE MISS LATENCY: 222.751 cycles
LLC RQ	ACCESS:    1000570	FORWARD:          0	MERGED:          0	TO_CACHE:    1000561
LLC WQ	ACCESS:     787334	FORWARD:         18	MERGED:          0	TO_CACHE:     787334
LLC PQ	ACCESS:    1609739	FORWARD:          0	MERGED:          0	TO_CACHE:    1609730

LLC Dense regions hint to LLC: 0

RAW hits: 149173
Loads Generated: 15008574
Loads sent to L1D: 14859398
Stores Generated: 3057587
Stores sent to L1D: 3057587
Major fault: 0 Minor fault: 7959
Allocated PAGES: 7959

stream: 
stream:times selected: 5543448
stream:pref_filled: 1968603
stream:pref_useful: 582189
stream:pref_late: 143518
stream:misses: 25339
stream:misses_by_poll: 0

CS: 
CS:times selected: 1641070
CS:pref_filled: 1504234
CS:pref_useful: 1232961
CS:pref_late: 79755
CS:misses: 304469
CS:misses_by_poll: 4971

CPLX: 
CPLX:times selected: 3881531
CPLX:pref_filled: 91578
CPLX:pref_useful: 34164
CPLX:pref_late: 6952
CPLX:misses: 65117
CPLX:misses_by_poll: 123

ISB: 
ISB:times selected:3756025
ISB:pref_filled: 686162
ISB:pref_useful: 195026
ISB:pref_late: 29616
ISB:misses: 2198939
ISB:misses_by_poll: 3462

NL_L1: 
NL:times selected: 21474
NL:pref_filled: 9468
NL:pref_useful: 2350
NL:pref_late: 262
NL:misses: 14448
NL:misses_by_poll: 0

total selections: 14843548
total_filled: 1994443
total_useful: 921035
total_late: 269205
total_polluted: 8556
total_misses_after_warmup: 1548953
conflicts: 172593

test: 1645022

DRAM Statistics
 CHANNEL 0
 RQ ROW_BUFFER_HIT:     565573  ROW_BUFFER_MISS:    1576157
 DBUS_CONGESTED:        924
 WQ ROW_BUFFER_HIT:     176391  ROW_BUFFER_MISS:     473268  FULL:          0

 AVG_CONGESTED_CYCLE: 5
 All warmup complete: 2
Channel 0 Bank busy for read cycles: 0
Channel 0 Bank busy for write cycles: 0
Channel 0
Rank 0
0banks busy for read cycles: 16341315
0banks busy for write cycles: 24609
1banks busy for read cycles: 24672299
1banks busy for write cycles: 3902119
2banks busy for read cycles: 14940180
2banks busy for write cycles: 2206833
3banks busy for read cycles: 11539012
3banks busy for write cycles: 1384385
4banks busy for read cycles: 10280594
4banks busy for write cycles: 957182
5banks busy for read cycles: 8006747
5banks busy for write cycles: 713130
6banks busy for read cycles: 6603386
6banks busy for write cycles: 588682
7banks busy for read cycles: 5041479
7banks busy for write cycles: 1588953
8banks busy for read cycles: 3176793
8banks busy for write cycles: 13747639

CPU 0 Branch Prediction Accuracy: 94.9774% MPKI: 9.10314 Average ROB Occupancy at Mispredict: 44.9366
Branch types
NOT_BRANCH: 40937845 81.8757%
BRANCH_DIRECT_JUMP: 51581 0.103162%
BRANCH_INDIRECT: 18 3.6e-05%
BRANCH_CONDITIONAL: 9006978 18.014%
BRANCH_DIRECT_CALL: 1703 0.003406%
BRANCH_INDIRECT_CALL: 102 0.000204%
BRANCH_RETURN: 1801 0.003602%
BRANCH_OTHER: 0 0%

DRAM PAGES: 1048576
Allocated PAGES: 7959
