
*** ChampSim Multicore Out-of-Order Simulator ***

Warmup Instructions: 50000000
Simulation Instructions: 50000000
Number of CPUs: 1
LLC sets: 2048
LLC ways: 16
Off-chip DRAM Size: 4096 MB Channels: 1 Width: 64-bit Data Rate: 6400 MT/s
CPU 0 runs traces/SPEC-CPU2017/471.omnetpp-188B.champsimtrace.xz
.xz
CPU 0 Bimodal branch predictor
BTB has LRU replacement policy
ITLB has LRU replacement policy
DTLB has LRU replacement policy
STLB has LRU replacement policy
L1I has LRU replacement policy
L1D has LRU replacement policy
L2C has LRU replacement policy
LLC has LRU replacement policy
Heartbeat CPU 0 instructions: 10000001 cycles: 3267765 heartbeat IPC: 3.0602 cumulative IPC: 3.0602 (Simulation time: 0 hr 3 min 24 sec) 
Heartbeat CPU 0 instructions: 20000000 cycles: 6493955 heartbeat IPC: 3.09963 cumulative IPC: 3.07979 (Simulation time: 0 hr 6 min 41 sec) 
Heartbeat CPU 0 instructions: 30000000 cycles: 9754325 heartbeat IPC: 3.06714 cumulative IPC: 3.07556 (Simulation time: 0 hr 10 min 7 sec) 
Heartbeat CPU 0 instructions: 40000000 cycles: 12996274 heartbeat IPC: 3.08456 cumulative IPC: 3.07781 (Simulation time: 0 hr 13 min 27 sec) 
Heartbeat CPU 0 instructions: 50000003 cycles: 16245661 heartbeat IPC: 3.0775 cumulative IPC: 3.07774 (Simulation time: 0 hr 16 min 48 sec) 

Warmup complete CPU 0 instructions: 50000003 cycles: 16245661 (Simulation time: 0 hr 16 min 48 sec) 

Heartbeat CPU 0 instructions: 60000000 cycles: 58257955 heartbeat IPC: 0.238025 cumulative IPC: 0.238025 (Simulation time: 0 hr 17 min 45 sec) 
Heartbeat CPU 0 instructions: 70000001 cycles: 99348879 heartbeat IPC: 0.243363 cumulative IPC: 0.240665 (Simulation time: 0 hr 18 min 42 sec) 
Heartbeat CPU 0 instructions: 80000000 cycles: 142842508 heartbeat IPC: 0.229919 cumulative IPC: 0.236973 (Simulation time: 0 hr 19 min 42 sec) 
Heartbeat CPU 0 instructions: 90000003 cycles: 186692573 heartbeat IPC: 0.22805 cumulative IPC: 0.234677 (Simulation time: 0 hr 20 min 40 sec) 
Heartbeat CPU 0 instructions: 100000000 cycles: 230595148 heartbeat IPC: 0.227777 cumulative IPC: 0.233264 (Simulation time: 0 hr 21 min 38 sec) 
Finished CPU 0 instructions: 50000000 cycles: 214349496 cumulative IPC: 0.233264 (Simulation time: 0 hr 21 min 38 sec) 

ChampSim completed all CPUs

Region of Interest Statistics

CPU 0 cumulative IPC: 0.233264 instructions: 50000000 cycles: 214349496
ITLB TOTAL     ACCESS:    8725539  HIT:    8708336  MISS:      17203  HIT %:    99.8028  MISS %:   0.197157   MPKI: 0.34406
ITLB LOAD TRANSLATION ACCESS:    8725539  HIT:    8708336  MISS:      17203  HIT %:    99.8028  MISS %:   0.197157   MPKI: 0.34406
ITLB PREFETCH  REQUESTED:          0  ISSUED:          0  USEFUL:          0  USELESS:          0
ITLB USEFUL LOAD PREFETCHES:          0 PREFETCH ISSUED TO LOWER LEVEL:          0  ACCURACY: -nan
ITLB TIMELY PREFETCHES:          0 LATE PREFETCHES: 0 DROPPED PREFETCHES: 0
ITLB PREFETCHES SAME FILL-ORIGIN LEVEL: 0 DIFFERENT FILL-ORIGIN LEVEL: 0
ITLB AVERAGE MISS LATENCY: 11.321 cycles
ITLB RQ	ACCESS:    9817790	FORWARD:          0	MERGED:    1084635	TO_CACHE:    8733155

DTLB TOTAL     ACCESS:   14670916  HIT:   13713437  MISS:     957479  HIT %:    93.4736  MISS %:    6.52638   MPKI: 19.1496
DTLB LOAD TRANSLATION ACCESS:   14670916  HIT:   13713437  MISS:     957479  HIT %:    93.4736  MISS %:    6.52638   MPKI: 19.1496
DTLB PREFETCH  REQUESTED:          0  ISSUED:          0  USEFUL:          0  USELESS:          0
DTLB USEFUL LOAD PREFETCHES:          0 PREFETCH ISSUED TO LOWER LEVEL:          0  ACCURACY: -nan
DTLB TIMELY PREFETCHES:          0 LATE PREFETCHES: 0 DROPPED PREFETCHES: 0
DTLB PREFETCHES SAME FILL-ORIGIN LEVEL: 0 DIFFERENT FILL-ORIGIN LEVEL: 0
DTLB AVERAGE MISS LATENCY: 26.232 cycles
DTLB RQ	ACCESS:   17855976	FORWARD:          0	MERGED:    3137919	TO_CACHE:   14718057

STLB TOTAL     ACCESS:    2492370  HIT:    2269370  MISS:     223000  HIT %:    91.0527  MISS %:    8.94731   MPKI: 4.46
STLB LOAD TRANSLATION ACCESS:     974682  HIT:     756493  MISS:     218189  HIT %:    77.6143  MISS %:    22.3857   MPKI: 4.36378
STLB TRANSLATION FROM L1D PREFETCHER ACCESS:    1517688  HIT:    1512877  MISS:       4811  HIT %:     99.683  MISS %:   0.316995   MPKI: 0.09622
STLB PREFETCH  REQUESTED:          0  ISSUED:          0  USEFUL:       3452  USELESS:       1354
STLB USEFUL LOAD PREFETCHES:       3452 PREFETCH ISSUED TO LOWER LEVEL:          0  ACCURACY: inf
STLB TIMELY PREFETCHES:       3452 LATE PREFETCHES: 26 DROPPED PREFETCHES: 0
STLB PREFETCHES SAME FILL-ORIGIN LEVEL: 0 DIFFERENT FILL-ORIGIN LEVEL: 0
STLB AVERAGE MISS LATENCY: 75.8394 cycles
STLB RQ	ACCESS:    2872494	FORWARD:          0	MERGED:     380054	TO_CACHE:    2492440

STLB Hit, L1D data hit: 0
STLB Hit, L2C data hit: 0
STLB Hit, LLC data hit: 0
STLB Hit, LLC data miss: 0
STLB STLB hints to L2: 0
L1D TOTAL     ACCESS:   19157978  HIT:   17491497  MISS:    1666481  HIT %:    91.3014  MISS %:    8.69863   MPKI: 33.3296
L1D LOAD      ACCESS:    9463298  HIT:    8533612  MISS:     929686  HIT %:    90.1759  MISS %:    9.82412   MPKI: 18.5937
L1D RFO       ACCESS:    7856803  HIT:    7689359  MISS:     167444  HIT %:    97.8688  MISS %:     2.1312   MPKI: 3.34888
L1D PREFETCH  ACCESS:    1837877  HIT:    1268526  MISS:     569351  HIT %:    69.0213  MISS %:    30.9787   MPKI: 11.387
AGUS PREFETCH L1 MISS: 0
L1D PREFETCH  REQUESTED:    3798534  ISSUED:    3796176  USEFUL:     102402  USELESS:     466986
L1D USEFUL LOAD PREFETCHES:     102402 PREFETCH ISSUED TO LOWER LEVEL:     581655  ACCURACY: 17.6053
L1D TIMELY PREFETCHES:     102402 LATE PREFETCHES: 11917 DROPPED PREFETCHES: 0
L1D PREFETCHES SAME FILL-ORIGIN LEVEL: 581655 DIFFERENT FILL-ORIGIN LEVEL: 0
L1D AVERAGE MISS LATENCY: 157.397 cycles
L1D RQ	ACCESS:   14057611	FORWARD:          0	MERGED:    4057853	TO_CACHE:    9562739
L1D WQ	ACCESS:    8476021	FORWARD:     437121	MERGED:     182784	TO_CACHE:    8293237
L1D PQ	ACCESS:    1898364	FORWARD:          0	MERGED:        450	TO_CACHE:    1897812

L1D UNIQUE REGIONS ACCESSED: 0
L1D REGIONS CONFLICTS: 0
L1D Cross Page Prefetch Requests: 35789
L1D Same Page Prefetch Requests: 3656069
L1D ROI Sum of L1D PQ occupancy: 25792088
L1D PREFETCHES PUSHED FROM L2C: 0
L1I TOTAL     ACCESS:    9817491  HIT:    9815950  MISS:       1541  HIT %:    99.9843  MISS %:  0.0156965   MPKI: 0.03082
L1I LOAD      ACCESS:    9817491  HIT:    9815950  MISS:       1541  HIT %:    99.9843  MISS %:  0.0156965   MPKI: 0.03082
L1I PREFETCH  REQUESTED:          0  ISSUED:          0  USEFUL:          0  USELESS:          0
L1I USEFUL LOAD PREFETCHES:          0 PREFETCH ISSUED TO LOWER LEVEL:          0  ACCURACY: -nan
L1I TIMELY PREFETCHES:          0 LATE PREFETCHES: 0 DROPPED PREFETCHES: 0
L1I PREFETCHES SAME FILL-ORIGIN LEVEL: 0 DIFFERENT FILL-ORIGIN LEVEL: 0
L1I AVERAGE MISS LATENCY: 157.755 cycles
L1I RQ	ACCESS:   14785166	FORWARD:          0	MERGED:    4967376	TO_CACHE:    9817790

BTB TOTAL     ACCESS:   10008119  HIT:    9487971  MISS:     520148  HIT %:    94.8027  MISS %:    5.19726   MPKI: 10.403
BTB BRANCH_DIRECT_JUMP	ACCESS:     964405  HIT:     964243  MISS:        162
BTB BRANCH_INDIRECT	ACCESS:     140341  HIT:     116325  MISS:      24016
BTB BRANCH_CONDITIONAL	ACCESS:    5906166  HIT:    5905777  MISS:        389
BTB BRANCH_DIRECT_CALL	ACCESS:    1294152  HIT:    1293861  MISS:        291
BTB BRANCH_INDIRECT_CALL	ACCESS:     204449  HIT:     203146  MISS:       1303
BTB BRANCH_RETURN	ACCESS:    1498606  HIT:    1004619  MISS:     493987
BTB BRANCH_OTHER ACCESS:          0  HIT:          0  MISS:          0

L2C TOTAL     ACCESS:    2403690  HIT:     887085  MISS:    1516605  HIT %:    36.9051  MISS %:    63.0949   MPKI: 30.3321
L2C LOAD      ACCESS:     919282  HIT:     125166  MISS:     794116  HIT %:    13.6156  MISS %:    86.3844   MPKI: 15.8823
L2C DATA LOAD MPKI: 15.8556
L2C INSTRUCTION LOAD MPKI: 0.02676
L2C RFO       ACCESS:     167057  HIT:      10706  MISS:     156351  HIT %:    6.40859  MISS %:    93.5914   MPKI: 3.12702
L2C PREFETCH  ACCESS:     581647  HIT:     114144  MISS:     467503  HIT %:    19.6243  MISS %:    80.3757   MPKI: 9.35006
AGUS PREFETCH L1 MISS: 0
L2C DATA PREFETCH MPKI: 9.35006
L2C INSTRUCTION PREFETCH MPKI: 0
L2C WRITEBACK ACCESS:     499250  HIT:     497421  MISS:       1829  HIT %:    99.6337  MISS %:    0.36635   MPKI: 0.03658
L2C LOAD TRANSLATION ACCESS:     230821  HIT:     137101  MISS:      93720  HIT %:    59.3971  MISS %:    40.6029   MPKI: 1.8744
L2C TRANSLATION FROM L1D PREFETCHER ACCESS:       5633  HIT:       2547  MISS:       3086  HIT %:    45.2157  MISS %:    54.7843   MPKI: 0.06172
L2C PREFETCH  REQUESTED:          0  ISSUED:          0  USEFUL:      16956  USELESS:     453438
L2C USEFUL LOAD PREFETCHES:      16956 PREFETCH ISSUED TO LOWER LEVEL:     467503  ACCURACY: 3.62693
L2C TIMELY PREFETCHES:      16956 LATE PREFETCHES: 0 DROPPED PREFETCHES: 0
L2C PREFETCHES SAME FILL-ORIGIN LEVEL: 0 DIFFERENT FILL-ORIGIN LEVEL: 0
L2C AVERAGE MISS LATENCY: 162.744 cycles
L2C RQ	ACCESS:    1322821	FORWARD:          0	MERGED:          0	TO_CACHE:    1322793
L2C WQ	ACCESS:     499250	FORWARD:         36	MERGED:          0	TO_CACHE:     499250
L2C PQ	ACCESS:     581655	FORWARD:          0	MERGED:          0	TO_CACHE:     581647

L2C Instructions Evicting Data 1280
L2C Translations Evicting Data 90512
L2C Data Evicting Data 1324197
L2C Instructions Evicting Instructions 7
L2C Translations Evicting Instructions 64
L2C Data Evicting Instructions 1264
L2C Instructions Evicting Translations 51
L2C Translations Evicting Translations 6230
L2C Data Evicting Translations 91171
L2C Dense regions hint from L2: 0
PSCL5 TOTAL     ACCESS:     223000  HIT:     223000  MISS:          0  HIT %:        100  MISS %:          0   MPKI: 0
PSCL5 LOAD TRANSLATION ACCESS:     218163  HIT:     218163  MISS:          0  HIT %:        100  MISS %:          0   MPKI: 0
PSCL5 TRANSLATION FROM L1D PREFETCHER ACCESS:       4837  HIT:       4837  MISS:          0  HIT %:        100  MISS %:          0   MPKI: 0
PSCL5 PREFETCH  REQUESTED:          0  ISSUED:          0  USEFUL:          0  USELESS:          0
PSCL5 USEFUL LOAD PREFETCHES:          0 PREFETCH ISSUED TO LOWER LEVEL:          0  ACCURACY: -nan
PSCL5 TIMELY PREFETCHES:          0 LATE PREFETCHES: 0 DROPPED PREFETCHES: 0
PSCL5 PREFETCHES SAME FILL-ORIGIN LEVEL: 0 DIFFERENT FILL-ORIGIN LEVEL: 0

PSCL4 TOTAL     ACCESS:     223000  HIT:     223000  MISS:          0  HIT %:        100  MISS %:          0   MPKI: 0
PSCL4 LOAD TRANSLATION ACCESS:     218163  HIT:     218163  MISS:          0  HIT %:        100  MISS %:          0   MPKI: 0
PSCL4 TRANSLATION FROM L1D PREFETCHER ACCESS:       4837  HIT:       4837  MISS:          0  HIT %:        100  MISS %:          0   MPKI: 0
PSCL4 PREFETCH  REQUESTED:          0  ISSUED:          0  USEFUL:          0  USELESS:          0
PSCL4 USEFUL LOAD PREFETCHES:          0 PREFETCH ISSUED TO LOWER LEVEL:          0  ACCURACY: -nan
PSCL4 TIMELY PREFETCHES:          0 LATE PREFETCHES: 0 DROPPED PREFETCHES: 0
PSCL4 PREFETCHES SAME FILL-ORIGIN LEVEL: 0 DIFFERENT FILL-ORIGIN LEVEL: 0

PSCL3 TOTAL     ACCESS:     223000  HIT:     223000  MISS:          0  HIT %:        100  MISS %:          0   MPKI: 0
PSCL3 LOAD TRANSLATION ACCESS:     218163  HIT:     218163  MISS:          0  HIT %:        100  MISS %:          0   MPKI: 0
PSCL3 TRANSLATION FROM L1D PREFETCHER ACCESS:       4837  HIT:       4837  MISS:          0  HIT %:        100  MISS %:          0   MPKI: 0
PSCL3 PREFETCH  REQUESTED:          0  ISSUED:          0  USEFUL:          0  USELESS:          0
PSCL3 USEFUL LOAD PREFETCHES:          0 PREFETCH ISSUED TO LOWER LEVEL:          0  ACCURACY: -nan
PSCL3 TIMELY PREFETCHES:          0 LATE PREFETCHES: 0 DROPPED PREFETCHES: 0
PSCL3 PREFETCHES SAME FILL-ORIGIN LEVEL: 0 DIFFERENT FILL-ORIGIN LEVEL: 0

PSCL2 TOTAL     ACCESS:     223000  HIT:     209545  MISS:      13455  HIT %:    93.9664  MISS %:    6.03363   MPKI: 0.2691
PSCL2 LOAD TRANSLATION ACCESS:     218959  HIT:     205504  MISS:      13455  HIT %:     93.855  MISS %:    6.14499   MPKI: 0.2691
PSCL2 TRANSLATION FROM L1D PREFETCHER ACCESS:       4041  HIT:       4041  MISS:          0  HIT %:        100  MISS %:          0   MPKI: 0
PSCL2 PREFETCH  REQUESTED:          0  ISSUED:          0  USEFUL:          0  USELESS:          0
PSCL2 USEFUL LOAD PREFETCHES:          0 PREFETCH ISSUED TO LOWER LEVEL:          0  ACCURACY: -nan
PSCL2 TIMELY PREFETCHES:          0 LATE PREFETCHES: 0 DROPPED PREFETCHES: 0
PSCL2 PREFETCHES SAME FILL-ORIGIN LEVEL: 0 DIFFERENT FILL-ORIGIN LEVEL: 0

LLC TOTAL     ACCESS:    1959718  HIT:     732829  MISS:    1226889  HIT %:    37.3946  MISS %:    62.6054   MPKI: 24.5378
LLC LOAD      ACCESS:     794115  HIT:     127625  MISS:     666490  HIT %:    16.0713  MISS %:    83.9287   MPKI: 13.3298
LLC RFO       ACCESS:     156351  HIT:      20816  MISS:     135535  HIT %:    13.3136  MISS %:    86.6864   MPKI: 2.7107
LLC PREFETCH  ACCESS:     467503  HIT:      81569  MISS:     385934  HIT %:    17.4478  MISS %:    82.5522   MPKI: 7.71868
AGUS PREFETCH L1 MISS: 0
LLC WRITEBACK ACCESS:     444943  HIT:     443559  MISS:       1384  HIT %:    99.6889  MISS %:   0.311051   MPKI: 0.02768
LLC LOAD TRANSLATION ACCESS:      93720  HIT:      57653  MISS:      36067  HIT %:    61.5162  MISS %:    38.4838   MPKI: 0.72134
LLC TRANSLATION FROM L1D PREFETCHER ACCESS:       3086  HIT:       1607  MISS:       1479  HIT %:    52.0739  MISS %:    47.9261   MPKI: 0.02958
LLC PREFETCH  REQUESTED:          0  ISSUED:          0  USEFUL:      17247  USELESS:     372384
LLC USEFUL LOAD PREFETCHES:      17247 PREFETCH ISSUED TO LOWER LEVEL:     385934  ACCURACY: 4.4689
LLC TIMELY PREFETCHES:      17247 LATE PREFETCHES: 0 DROPPED PREFETCHES: 0
LLC PREFETCHES SAME FILL-ORIGIN LEVEL: 0 DIFFERENT FILL-ORIGIN LEVEL: 0
LLC AVERAGE MISS LATENCY: 164.08 cycles
LLC RQ	ACCESS:    1047273	FORWARD:          0	MERGED:          0	TO_CACHE:    1047272
LLC WQ	ACCESS:     444943	FORWARD:          1	MERGED:          0	TO_CACHE:     444943
LLC PQ	ACCESS:     467503	FORWARD:          0	MERGED:          0	TO_CACHE:     467503

LLC Dense regions hint to LLC: 0

RAW hits: 817824
Loads Generated: 14875435
Loads sent to L1D: 14057611
Stores Generated: 8476009
Stores sent to L1D: 8476021
Major fault: 0 Minor fault: 33441
Allocated PAGES: 33441

stream: 
stream:times selected: 4298882
stream:pref_filled: 793992
stream:pref_useful: 165865
stream:pref_late: 17674
stream:misses: 157074
stream:misses_by_poll: 0

CS: 
CS:times selected: 57269
CS:pref_filled: 21822
CS:pref_useful: 4751
CS:pref_late: 333
CS:misses: 2108
CS:misses_by_poll: 1

CPLX: 
CPLX:times selected: 4258324
CPLX:pref_filled: 241131
CPLX:pref_useful: 12026
CPLX:pref_late: 1068
CPLX:misses: 485357
CPLX:misses_by_poll: 142

ISB: 
ISB:times selected:85364
ISB:pref_filled: 13858
ISB:pref_useful: 5572
ISB:pref_late: 263
ISB:misses: 10734
ISB:misses_by_poll: 2

NL_L1: 
NL:times selected: 16924
NL:pref_filled: 4866
NL:pref_useful: 817
NL:pref_late: 90
NL:misses: 3271
NL:misses_by_poll: 0

total selections: 8716763
total_filled: 569351
total_useful: 102402
total_late: 20599
total_polluted: 145
total_misses_after_warmup: 1029127
conflicts: 4582888

test: 2669605

DRAM Statistics
 CHANNEL 0
 RQ ROW_BUFFER_HIT:     148101  ROW_BUFFER_MISS:    1077391
 DBUS_CONGESTED:        750
 WQ ROW_BUFFER_HIT:     138990  ROW_BUFFER_MISS:     240880  FULL:          0

 AVG_CONGESTED_CYCLE: 4
 All warmup complete: 2
Channel 0 Bank busy for read cycles: 0
Channel 0 Bank busy for write cycles: 0
Channel 0
Rank 0
0banks busy for read cycles: 64720359
0banks busy for write cycles: 142292
1banks busy for read cycles: 59375323
1banks busy for write cycles: 22898335
2banks busy for read cycles: 29167461
2banks busy for write cycles: 12214000
3banks busy for read cycles: 9789369
3banks busy for write cycles: 6133840
4banks busy for read cycles: 3389469
4banks busy for write cycles: 2946464
5banks busy for read cycles: 1131826
5banks busy for write cycles: 1276719
6banks busy for read cycles: 335025
6banks busy for write cycles: 499680
7banks busy for read cycles: 76617
7banks busy for write cycles: 177595
8banks busy for read cycles: 21964
8banks busy for write cycles: 53159

CPU 0 Branch Prediction Accuracy: 94.0755% MPKI: 14.2353 Average ROB Occupancy at Mispredict: 26.2708
Branch types
NOT_BRANCH: 37985796 75.9716%
BRANCH_DIRECT_JUMP: 964405 1.92881%
BRANCH_INDIRECT: 140341 0.280682%
BRANCH_CONDITIONAL: 7911981 15.824%
BRANCH_DIRECT_CALL: 1294152 2.5883%
BRANCH_INDIRECT_CALL: 204449 0.408898%
BRANCH_RETURN: 1498606 2.99721%
BRANCH_OTHER: 0 0%

DRAM PAGES: 1048576
Allocated PAGES: 33441
