
*** ChampSim Multicore Out-of-Order Simulator ***

Warmup Instructions: 50000000
Simulation Instructions: 50000000
Number of CPUs: 1
LLC sets: 2048
LLC ways: 16
Off-chip DRAM Size: 4096 MB Channels: 1 Width: 64-bit Data Rate: 6400 MT/s
CPU 0 runs traces/SPEC-CPU2017/602.gcc_s-2226B.champsimtrace.xz
.xz
CPU 0 Bimodal branch predictor
BTB has LRU replacement policy
ITLB has LRU replacement policy
DTLB has LRU replacement policy
STLB has LRU replacement policy
L1I has LRU replacement policy
L1D has LRU replacement policy
L2C has LRU replacement policy
LLC has LRU replacement policy
Heartbeat CPU 0 instructions: 10000001 cycles: 3758160 heartbeat IPC: 2.66088 cumulative IPC: 2.66088 (Simulation time: 0 hr 8 min 44 sec) 
Heartbeat CPU 0 instructions: 20000000 cycles: 7517296 heartbeat IPC: 2.66019 cumulative IPC: 2.66053 (Simulation time: 0 hr 17 min 32 sec) 
Heartbeat CPU 0 instructions: 30000001 cycles: 11271767 heartbeat IPC: 2.66349 cumulative IPC: 2.66152 (Simulation time: 0 hr 26 min 21 sec) 
Heartbeat CPU 0 instructions: 40000000 cycles: 15025034 heartbeat IPC: 2.66435 cumulative IPC: 2.66222 (Simulation time: 0 hr 35 min 11 sec) 
Heartbeat CPU 0 instructions: 50000000 cycles: 18779257 heartbeat IPC: 2.66367 cumulative IPC: 2.66251 (Simulation time: 0 hr 43 min 57 sec) 

Warmup complete CPU 0 instructions: 50000004 cycles: 18779258 (Simulation time: 0 hr 43 min 57 sec) 

Heartbeat CPU 0 instructions: 60000000 cycles: 44848156 heartbeat IPC: 0.383599 cumulative IPC: 0.383599 (Simulation time: 0 hr 45 min 41 sec) 
Heartbeat CPU 0 instructions: 70000000 cycles: 70614596 heartbeat IPC: 0.388102 cumulative IPC: 0.385837 (Simulation time: 0 hr 47 min 24 sec) 
Heartbeat CPU 0 instructions: 80000000 cycles: 96488671 heartbeat IPC: 0.386487 cumulative IPC: 0.386054 (Simulation time: 0 hr 49 min 8 sec) 
Heartbeat CPU 0 instructions: 90000001 cycles: 122391746 heartbeat IPC: 0.386055 cumulative IPC: 0.386054 (Simulation time: 0 hr 50 min 52 sec) 
Heartbeat CPU 0 instructions: 100000000 cycles: 148134027 heartbeat IPC: 0.388466 cumulative IPC: 0.386534 (Simulation time: 0 hr 52 min 37 sec) 
Finished CPU 0 instructions: 50000001 cycles: 129354789 cumulative IPC: 0.386534 (Simulation time: 0 hr 52 min 37 sec) 

ChampSim completed all CPUs

Region of Interest Statistics

CPU 0 cumulative IPC: 0.386534 instructions: 50000001 cycles: 129354789
ITLB TOTAL     ACCESS:   11158660  HIT:   11158660  MISS:          0  HIT %:        100  MISS %:          0   MPKI: 0
ITLB LOAD TRANSLATION ACCESS:   11158660  HIT:   11158660  MISS:          0  HIT %:        100  MISS %:          0   MPKI: 0
ITLB PREFETCH  REQUESTED:          0  ISSUED:          0  USEFUL:          0  USELESS:          0
ITLB USEFUL LOAD PREFETCHES:          0 PREFETCH ISSUED TO LOWER LEVEL:          0  ACCURACY: -nan
ITLB TIMELY PREFETCHES:          0 LATE PREFETCHES: 0 DROPPED PREFETCHES: 0
ITLB PREFETCHES SAME FILL-ORIGIN LEVEL: 0 DIFFERENT FILL-ORIGIN LEVEL: 0
ITLB AVERAGE MISS LATENCY: -nan cycles
ITLB RQ	ACCESS:   11331513	FORWARD:          0	MERGED:     172854	TO_CACHE:   11158659

DTLB TOTAL     ACCESS:    7727220  HIT:    7658731  MISS:      68489  HIT %:    99.1137  MISS %:   0.886334   MPKI: 1.36978
DTLB LOAD TRANSLATION ACCESS:    7727220  HIT:    7658731  MISS:      68489  HIT %:    99.1137  MISS %:   0.886334   MPKI: 1.36978
DTLB PREFETCH  REQUESTED:          0  ISSUED:          0  USEFUL:          0  USELESS:          0
DTLB USEFUL LOAD PREFETCHES:          0 PREFETCH ISSUED TO LOWER LEVEL:          0  ACCURACY: -nan
DTLB TIMELY PREFETCHES:          0 LATE PREFETCHES: 0 DROPPED PREFETCHES: 0
DTLB PREFETCHES SAME FILL-ORIGIN LEVEL: 0 DIFFERENT FILL-ORIGIN LEVEL: 0
DTLB AVERAGE MISS LATENCY: 39.2911 cycles
DTLB RQ	ACCESS:    9091517	FORWARD:          0	MERGED:    1364189	TO_CACHE:    7727328

STLB TOTAL     ACCESS:    3433590  HIT:    3367565  MISS:      66025  HIT %:    98.0771  MISS %:    1.92291   MPKI: 1.3205
STLB LOAD TRANSLATION ACCESS:      68489  HIT:      39498  MISS:      28991  HIT %:    57.6706  MISS %:    42.3294   MPKI: 0.57982
STLB TRANSLATION FROM L1D PREFETCHER ACCESS:    3365101  HIT:    3328067  MISS:      37034  HIT %:    98.8995  MISS %:    1.10053   MPKI: 0.74068
STLB PREFETCH  REQUESTED:          0  ISSUED:          0  USEFUL:      37031  USELESS:          3
STLB USEFUL LOAD PREFETCHES:      37031 PREFETCH ISSUED TO LOWER LEVEL:          0  ACCURACY: inf
STLB TIMELY PREFETCHES:      37031 LATE PREFETCHES: 132 DROPPED PREFETCHES: 0
STLB PREFETCHES SAME FILL-ORIGIN LEVEL: 0 DIFFERENT FILL-ORIGIN LEVEL: 0
STLB AVERAGE MISS LATENCY: 83.3827 cycles
STLB RQ	ACCESS:    4914701	FORWARD:          0	MERGED:    1480570	TO_CACHE:    3434131

STLB Hit, L1D data hit: 0
STLB Hit, L2C data hit: 0
STLB Hit, LLC data hit: 0
STLB Hit, LLC data miss: 0
STLB STLB hints to L2: 0
L1D TOTAL     ACCESS:   13772440  HIT:    9981801  MISS:    3790639  HIT %:    72.4766  MISS %:    27.5234   MPKI: 75.8128
L1D LOAD      ACCESS:    8389478  HIT:    8204690  MISS:     184788  HIT %:    97.7974  MISS %:    2.20262   MPKI: 3.69576
L1D RFO       ACCESS:     654316  HIT:     653763  MISS:        553  HIT %:    99.9155  MISS %:  0.0845157   MPKI: 0.01106
L1D PREFETCH  ACCESS:    4728646  HIT:    1123348  MISS:    3605298  HIT %:    23.7562  MISS %:    76.2438   MPKI: 72.106
AGUS PREFETCH L1 MISS: 0
L1D PREFETCH  REQUESTED:    9805590  ISSUED:    9692426  USEFUL:    3333894  USELESS:     271431
L1D USEFUL LOAD PREFETCHES:    3333894 PREFETCH ISSUED TO LOWER LEVEL:    3720383  ACCURACY: 89.6116
L1D TIMELY PREFETCHES:    3333894 LATE PREFETCHES: 114662 DROPPED PREFETCHES: 0
L1D PREFETCHES SAME FILL-ORIGIN LEVEL: 3720383 DIFFERENT FILL-ORIGIN LEVEL: 0
L1D AVERAGE MISS LATENCY: 120.841 cycles
L1D RQ	ACCESS:   17950678	FORWARD:          0	MERGED:    9511971	TO_CACHE:    8437197
L1D WQ	ACCESS:     726205	FORWARD:       1510	MERGED:      71885	TO_CACHE:     654320
L1D PQ	ACCESS:    4846213	FORWARD:          0	MERGED:          0	TO_CACHE:    4846213

L1D UNIQUE REGIONS ACCESSED: 0
L1D REGIONS CONFLICTS: 0
L1D Cross Page Prefetch Requests: 74855
L1D Same Page Prefetch Requests: 10343044
L1D ROI Sum of L1D PQ occupancy: 71802648
L1D PREFETCHES PUSHED FROM L2C: 0
L1I TOTAL     ACCESS:   11331513  HIT:   11331513  MISS:          0  HIT %:        100  MISS %:          0   MPKI: 0
L1I LOAD      ACCESS:   11331513  HIT:   11331513  MISS:          0  HIT %:        100  MISS %:          0   MPKI: 0
L1I PREFETCH  REQUESTED:          0  ISSUED:          0  USEFUL:          0  USELESS:          0
L1I USEFUL LOAD PREFETCHES:          0 PREFETCH ISSUED TO LOWER LEVEL:          0  ACCURACY: -nan
L1I TIMELY PREFETCHES:          0 LATE PREFETCHES: 0 DROPPED PREFETCHES: 0
L1I PREFETCHES SAME FILL-ORIGIN LEVEL: 0 DIFFERENT FILL-ORIGIN LEVEL: 0
L1I AVERAGE MISS LATENCY: -nan cycles
L1I RQ	ACCESS:   16024452	FORWARD:          0	MERGED:    4692939	TO_CACHE:   11331513

BTB TOTAL     ACCESS:   11928195  HIT:   11928097  MISS:         98  HIT %:    99.9992  MISS %: 0.000821583   MPKI: 0.00196
BTB BRANCH_DIRECT_JUMP	ACCESS:     168848  HIT:     168822  MISS:         26
BTB BRANCH_INDIRECT	ACCESS:          0  HIT:          0  MISS:          0
BTB BRANCH_CONDITIONAL	ACCESS:   11592637  HIT:   11592588  MISS:         49
BTB BRANCH_DIRECT_CALL	ACCESS:      83355  HIT:      83345  MISS:         10
BTB BRANCH_INDIRECT_CALL	ACCESS:          0  HIT:          0  MISS:          0
BTB BRANCH_RETURN	ACCESS:      83355  HIT:      83342  MISS:         13
BTB BRANCH_OTHER ACCESS:          0  HIT:          0  MISS:          0

L2C TOTAL     ACCESS:    3864206  HIT:     200336  MISS:    3663870  HIT %:     5.1844  MISS %:    94.8156   MPKI: 73.2774
L2C LOAD      ACCESS:      70107  HIT:      16424  MISS:      53683  HIT %:     23.427  MISS %:     76.573   MPKI: 1.07366
L2C DATA LOAD MPKI: 1.07366
L2C INSTRUCTION LOAD MPKI: 0
L2C RFO       ACCESS:        134  HIT:         79  MISS:         55  HIT %:    58.9552  MISS %:    41.0448   MPKI: 0.0011
L2C PREFETCH  ACCESS:    3720379  HIT:     125975  MISS:    3594404  HIT %:    3.38608  MISS %:    96.6139   MPKI: 71.8881
AGUS PREFETCH L1 MISS: 0
L2C DATA PREFETCH MPKI: 71.8881
L2C INSTRUCTION PREFETCH MPKI: 0
L2C WRITEBACK ACCESS:       6047  HIT:       5876  MISS:        171  HIT %:    97.1722  MISS %:    2.82785   MPKI: 0.00342
L2C LOAD TRANSLATION ACCESS:      29704  HIT:      21645  MISS:       8059  HIT %:     72.869  MISS %:     27.131   MPKI: 0.16118
L2C TRANSLATION FROM L1D PREFETCHER ACCESS:      37835  HIT:      30337  MISS:       7498  HIT %:    80.1824  MISS %:    19.8176   MPKI: 0.14996
L2C PREFETCH  REQUESTED:          0  ISSUED:          0  USEFUL:      11050  USELESS:    3590770
L2C USEFUL LOAD PREFETCHES:      11050 PREFETCH ISSUED TO LOWER LEVEL:    3594408  ACCURACY: 0.307422
L2C TIMELY PREFETCHES:      11050 LATE PREFETCHES: 0 DROPPED PREFETCHES: 0
L2C PREFETCHES SAME FILL-ORIGIN LEVEL: 0 DIFFERENT FILL-ORIGIN LEVEL: 0
L2C AVERAGE MISS LATENCY: 110.093 cycles
L2C RQ	ACCESS:     137799	FORWARD:          0	MERGED:          0	TO_CACHE:     137780
L2C WQ	ACCESS:       6047	FORWARD:         19	MERGED:          0	TO_CACHE:       6047
L2C PQ	ACCESS:    3720383	FORWARD:          0	MERGED:          0	TO_CACHE:    3720383

L2C Instructions Evicting Data 0
L2C Translations Evicting Data 15519
L2C Data Evicting Data 3632632
L2C Instructions Evicting Instructions 0
L2C Translations Evicting Instructions 0
L2C Data Evicting Instructions 0
L2C Instructions Evicting Translations 0
L2C Translations Evicting Translations 38
L2C Data Evicting Translations 15510
L2C Dense regions hint from L2: 0
PSCL5 TOTAL     ACCESS:      66024  HIT:      66024  MISS:          0  HIT %:        100  MISS %:          0   MPKI: 0
PSCL5 LOAD TRANSLATION ACCESS:      28858  HIT:      28858  MISS:          0  HIT %:        100  MISS %:          0   MPKI: 0
PSCL5 TRANSLATION FROM L1D PREFETCHER ACCESS:      37166  HIT:      37166  MISS:          0  HIT %:        100  MISS %:          0   MPKI: 0
PSCL5 PREFETCH  REQUESTED:          0  ISSUED:          0  USEFUL:          0  USELESS:          0
PSCL5 USEFUL LOAD PREFETCHES:          0 PREFETCH ISSUED TO LOWER LEVEL:          0  ACCURACY: -nan
PSCL5 TIMELY PREFETCHES:          0 LATE PREFETCHES: 0 DROPPED PREFETCHES: 0
PSCL5 PREFETCHES SAME FILL-ORIGIN LEVEL: 0 DIFFERENT FILL-ORIGIN LEVEL: 0

PSCL4 TOTAL     ACCESS:      66024  HIT:      66024  MISS:          0  HIT %:        100  MISS %:          0   MPKI: 0
PSCL4 LOAD TRANSLATION ACCESS:      28858  HIT:      28858  MISS:          0  HIT %:        100  MISS %:          0   MPKI: 0
PSCL4 TRANSLATION FROM L1D PREFETCHER ACCESS:      37166  HIT:      37166  MISS:          0  HIT %:        100  MISS %:          0   MPKI: 0
PSCL4 PREFETCH  REQUESTED:          0  ISSUED:          0  USEFUL:          0  USELESS:          0
PSCL4 USEFUL LOAD PREFETCHES:          0 PREFETCH ISSUED TO LOWER LEVEL:          0  ACCURACY: -nan
PSCL4 TIMELY PREFETCHES:          0 LATE PREFETCHES: 0 DROPPED PREFETCHES: 0
PSCL4 PREFETCHES SAME FILL-ORIGIN LEVEL: 0 DIFFERENT FILL-ORIGIN LEVEL: 0

PSCL3 TOTAL     ACCESS:      66020  HIT:      66013  MISS:          7  HIT %:    99.9894  MISS %:  0.0106028   MPKI: 0.00014
PSCL3 LOAD TRANSLATION ACCESS:      28861  HIT:      28854  MISS:          7  HIT %:    99.9757  MISS %:  0.0242542   MPKI: 0.00014
PSCL3 TRANSLATION FROM L1D PREFETCHER ACCESS:      37159  HIT:      37159  MISS:          0  HIT %:        100  MISS %:          0   MPKI: 0
PSCL3 PREFETCH  REQUESTED:          0  ISSUED:          0  USEFUL:          0  USELESS:          0
PSCL3 USEFUL LOAD PREFETCHES:          0 PREFETCH ISSUED TO LOWER LEVEL:          0  ACCURACY: -nan
PSCL3 TIMELY PREFETCHES:          0 LATE PREFETCHES: 0 DROPPED PREFETCHES: 0
PSCL3 PREFETCHES SAME FILL-ORIGIN LEVEL: 0 DIFFERENT FILL-ORIGIN LEVEL: 0

PSCL2 TOTAL     ACCESS:      66024  HIT:      64515  MISS:       1509  HIT %:    97.7145  MISS %:    2.28553   MPKI: 0.03018
PSCL2 LOAD TRANSLATION ACCESS:      29522  HIT:      28013  MISS:       1509  HIT %:    94.8886  MISS %:    5.11144   MPKI: 0.03018
PSCL2 TRANSLATION FROM L1D PREFETCHER ACCESS:      36502  HIT:      36502  MISS:          0  HIT %:        100  MISS %:          0   MPKI: 0
PSCL2 PREFETCH  REQUESTED:          0  ISSUED:          0  USEFUL:          0  USELESS:          0
PSCL2 USEFUL LOAD PREFETCHES:          0 PREFETCH ISSUED TO LOWER LEVEL:          0  ACCURACY: -nan
PSCL2 TIMELY PREFETCHES:          0 LATE PREFETCHES: 0 DROPPED PREFETCHES: 0
PSCL2 PREFETCHES SAME FILL-ORIGIN LEVEL: 0 DIFFERENT FILL-ORIGIN LEVEL: 0

LLC TOTAL     ACCESS:    3669474  HIT:      25251  MISS:    3644223  HIT %:   0.688137  MISS %:    99.3119   MPKI: 72.8845
LLC LOAD      ACCESS:      53683  HIT:       1301  MISS:      52382  HIT %:    2.42349  MISS %:    97.5765   MPKI: 1.04764
LLC RFO       ACCESS:         55  HIT:          0  MISS:         55  HIT %:          0  MISS %:        100   MPKI: 0.0011
LLC PREFETCH  ACCESS:    3594404  HIT:      17427  MISS:    3576977  HIT %:   0.484837  MISS %:    99.5152   MPKI: 71.5395
AGUS PREFETCH L1 MISS: 0
LLC WRITEBACK ACCESS:       5775  HIT:       5688  MISS:         87  HIT %:    98.4935  MISS %:    1.50649   MPKI: 0.00174
LLC LOAD TRANSLATION ACCESS:       8059  HIT:        543  MISS:       7516  HIT %:    6.73781  MISS %:    93.2622   MPKI: 0.15032
LLC TRANSLATION FROM L1D PREFETCHER ACCESS:       7498  HIT:        292  MISS:       7206  HIT %:    3.89437  MISS %:    96.1056   MPKI: 0.14412
LLC PREFETCH  REQUESTED:          0  ISSUED:          0  USEFUL:        349  USELESS:    3583434
LLC USEFUL LOAD PREFETCHES:        349 PREFETCH ISSUED TO LOWER LEVEL:    3576980  ACCURACY: 0.00975683
LLC TIMELY PREFETCHES:        349 LATE PREFETCHES: 0 DROPPED PREFETCHES: 0
LLC PREFETCHES SAME FILL-ORIGIN LEVEL: 0 DIFFERENT FILL-ORIGIN LEVEL: 0
LLC AVERAGE MISS LATENCY: 80.526 cycles
LLC RQ	ACCESS:      69295	FORWARD:          0	MERGED:          0	TO_CACHE:      69295
LLC WQ	ACCESS:       5775	FORWARD:          0	MERGED:          0	TO_CACHE:       5775
LLC PQ	ACCESS:    3594408	FORWARD:          0	MERGED:          0	TO_CACHE:    3594408

LLC Dense regions hint to LLC: 0

RAW hits: 3924
Loads Generated: 17954602
Loads sent to L1D: 17950678
Stores Generated: 726205
Stores sent to L1D: 726205
Major fault: 0 Minor fault: 48887
Allocated PAGES: 48887

stream: 
stream:times selected: 10989232
stream:pref_reqs: 62216181
stream:pref_reqs_filtered_out: 53319931
stream:pref_filled: 6644379
stream:pref_useful: 6243253
stream:pref_late: 128699
stream:misses: 27022
stream:misses_by_poll: 0

CS: 
CS:times selected: 5850483
CS:pref_reqs: 16308275
CS:pref_reqs_filtered_out: 14868993
CS:pref_filled: 164850
CS:pref_useful: 146560
CS:pref_late: 8362
CS:misses: 236731
CS:misses_by_poll: 287

CPLX: 
CPLX:times selected: 5134149
CPLX:pref_reqs: 7448531
CPLX:pref_reqs_filtered_out: 6273384
CPLX:pref_filled: 394810
CPLX:pref_useful: 215410
CPLX:pref_late: 1637
CPLX:misses: 120943
CPLX:misses_by_poll: 835

ISB: 
ISB:times selected:48424
ISB:pref_reqs: 232267
ISB:pref_reqs_filtered_out: 40699
ISB:pref_filled: 94864
ISB:pref_useful: 91583
ISB:pref_late: 622
ISB:misses: 14814
ISB:misses_by_poll: 202
ISB:Stream end: 13088
ISB:No Prediction: 10940810 99.5594
ISB:No translation: 12723097 115.778
ISB:Predictions: 96966 0.882373

NL_L1: 
NL:times selected: 4463
NL:pref_reqs: 4463
NL:pref_reqs_filtered_out: 1613
NL:pref_filled: 2164
NL:pref_useful: 2138
NL:pref_late: 278
NL:misses: 746
NL:misses_by_poll: 0

total selections: 22026751
total_filled: 3605298
total_useful: 3333894
total_late: 142497
total_polluted: 1324
total_misses_after_warmup: 232507
conflicts: 63082

test: 2635198

DRAM Statistics
 CHANNEL 0
 RQ ROW_BUFFER_HIT:    3346494  ROW_BUFFER_MISS:     297643
 DBUS_CONGESTED:       1309
 WQ ROW_BUFFER_HIT:        860  ROW_BUFFER_MISS:       4836  FULL:          0

 AVG_CONGESTED_CYCLE: 4
 All warmup complete: 2
Channel 0 Bank busy for read cycles: 0
Channel 0 Bank busy for write cycles: 0
Channel 0
Rank 0
0banks busy for read cycles: 27464338
0banks busy for write cycles: 2896
1banks busy for read cycles: 28994661
1banks busy for write cycles: 761231
2banks busy for read cycles: 52106835
2banks busy for write cycles: 291823
3banks busy for read cycles: 11356497
3banks busy for write cycles: 140715
4banks busy for read cycles: 2716476
4banks busy for write cycles: 62136
5banks busy for read cycles: 1314509
5banks busy for write cycles: 32883
6banks busy for read cycles: 1623536
6banks busy for write cycles: 13778
7banks busy for read cycles: 2204723
7banks busy for write cycles: 3779
8banks busy for read cycles: 261160
8banks busy for write cycles: 2814

CPU 0 Branch Prediction Accuracy: 99.1302% MPKI: 3.1024 Average ROB Occupancy at Mispredict: 96.7755
Branch types
NOT_BRANCH: 32166917 64.3338%
BRANCH_DIRECT_JUMP: 168848 0.337696%
BRANCH_INDIRECT: 0 0%
BRANCH_CONDITIONAL: 17497543 34.9951%
BRANCH_DIRECT_CALL: 83355 0.16671%
BRANCH_INDIRECT_CALL: 0 0%
BRANCH_RETURN: 83355 0.16671%
BRANCH_OTHER: 0 0%

DRAM PAGES: 1048576
Allocated PAGES: 48887
