
*** ChampSim Multicore Out-of-Order Simulator ***

Warmup Instructions: 50000000
Simulation Instructions: 50000000
Number of CPUs: 1
LLC sets: 2048
LLC ways: 16
Off-chip DRAM Size: 4096 MB Channels: 1 Width: 64-bit Data Rate: 6400 MT/s
CPU 0 runs traces/SPEC-CPU2017/602.gcc_s-2226B.champsimtrace.xz
.xz
CPU 0 Bimodal branch predictor
BTB has LRU replacement policy
ITLB has LRU replacement policy
DTLB has LRU replacement policy
STLB has LRU replacement policy
L1I has LRU replacement policy
L1D has LRU replacement policy
L2C has LRU replacement policy
LLC has LRU replacement policy
Heartbeat CPU 0 instructions: 10000001 cycles: 3758166 heartbeat IPC: 2.66087 cumulative IPC: 2.66087 (Simulation time: 0 hr 4 min 49 sec) 
Heartbeat CPU 0 instructions: 20000000 cycles: 7517261 heartbeat IPC: 2.66021 cumulative IPC: 2.66054 (Simulation time: 0 hr 9 min 43 sec) 
Heartbeat CPU 0 instructions: 30000001 cycles: 11271678 heartbeat IPC: 2.66353 cumulative IPC: 2.66154 (Simulation time: 0 hr 14 min 35 sec) 
Heartbeat CPU 0 instructions: 40000000 cycles: 15025125 heartbeat IPC: 2.66422 cumulative IPC: 2.66221 (Simulation time: 0 hr 19 min 21 sec) 
Heartbeat CPU 0 instructions: 50000000 cycles: 18779465 heartbeat IPC: 2.66358 cumulative IPC: 2.66248 (Simulation time: 0 hr 23 min 52 sec) 

Warmup complete CPU 0 instructions: 50000004 cycles: 18779466 (Simulation time: 0 hr 23 min 52 sec) 

Heartbeat CPU 0 instructions: 60000000 cycles: 44827163 heartbeat IPC: 0.383911 cumulative IPC: 0.383911 (Simulation time: 0 hr 24 min 56 sec) 
Heartbeat CPU 0 instructions: 70000000 cycles: 70564348 heartbeat IPC: 0.388543 cumulative IPC: 0.386213 (Simulation time: 0 hr 26 min 0 sec) 
Heartbeat CPU 0 instructions: 80000000 cycles: 96521787 heartbeat IPC: 0.385246 cumulative IPC: 0.38589 (Simulation time: 0 hr 27 min 4 sec) 
Heartbeat CPU 0 instructions: 90000001 cycles: 122534362 heartbeat IPC: 0.384429 cumulative IPC: 0.385524 (Simulation time: 0 hr 28 min 8 sec) 
Heartbeat CPU 0 instructions: 100000000 cycles: 148424876 heartbeat IPC: 0.386242 cumulative IPC: 0.385667 (Simulation time: 0 hr 29 min 12 sec) 
Finished CPU 0 instructions: 50000001 cycles: 129645430 cumulative IPC: 0.385667 (Simulation time: 0 hr 29 min 12 sec) 

ChampSim completed all CPUs

Region of Interest Statistics

CPU 0 cumulative IPC: 0.385667 instructions: 50000001 cycles: 129645430
ITLB TOTAL     ACCESS:   11175349  HIT:   11175349  MISS:          0  HIT %:        100  MISS %:          0   MPKI: 0
ITLB LOAD TRANSLATION ACCESS:   11175349  HIT:   11175349  MISS:          0  HIT %:        100  MISS %:          0   MPKI: 0
ITLB PREFETCH  REQUESTED:          0  ISSUED:          0  USEFUL:          0  USELESS:          0
ITLB USEFUL LOAD PREFETCHES:          0 PREFETCH ISSUED TO LOWER LEVEL:          0  ACCURACY: -nan
ITLB TIMELY PREFETCHES:          0 LATE PREFETCHES: 0 DROPPED PREFETCHES: 0
ITLB PREFETCHES SAME FILL-ORIGIN LEVEL: 0 DIFFERENT FILL-ORIGIN LEVEL: 0
ITLB AVERAGE MISS LATENCY: -nan cycles
ITLB RQ	ACCESS:   11348202	FORWARD:          0	MERGED:     172854	TO_CACHE:   11175348

DTLB TOTAL     ACCESS:    7731928  HIT:    7663442  MISS:      68486  HIT %:    99.1142  MISS %:   0.885756   MPKI: 1.36972
DTLB LOAD TRANSLATION ACCESS:    7731928  HIT:    7663442  MISS:      68486  HIT %:    99.1142  MISS %:   0.885756   MPKI: 1.36972
DTLB PREFETCH  REQUESTED:          0  ISSUED:          0  USEFUL:          0  USELESS:          0
DTLB USEFUL LOAD PREFETCHES:          0 PREFETCH ISSUED TO LOWER LEVEL:          0  ACCURACY: -nan
DTLB TIMELY PREFETCHES:          0 LATE PREFETCHES: 0 DROPPED PREFETCHES: 0
DTLB PREFETCHES SAME FILL-ORIGIN LEVEL: 0 DIFFERENT FILL-ORIGIN LEVEL: 0
DTLB AVERAGE MISS LATENCY: 38.1055 cycles
DTLB RQ	ACCESS:    9096236	FORWARD:          0	MERGED:    1364217	TO_CACHE:    7732019

STLB TOTAL     ACCESS:    3521665  HIT:    3455640  MISS:      66025  HIT %:    98.1252  MISS %:    1.87482   MPKI: 1.3205
STLB LOAD TRANSLATION ACCESS:      68486  HIT:      50984  MISS:      17502  HIT %:    74.4444  MISS %:    25.5556   MPKI: 0.35004
STLB TRANSLATION FROM L1D PREFETCHER ACCESS:    3453179  HIT:    3404656  MISS:      48523  HIT %:    98.5948  MISS %:    1.40517   MPKI: 0.97046
STLB PREFETCH  REQUESTED:          0  ISSUED:          0  USEFUL:      48519  USELESS:          4
STLB USEFUL LOAD PREFETCHES:      48519 PREFETCH ISSUED TO LOWER LEVEL:          0  ACCURACY: inf
STLB TIMELY PREFETCHES:      48519 LATE PREFETCHES: 5296 DROPPED PREFETCHES: 0
STLB PREFETCHES SAME FILL-ORIGIN LEVEL: 0 DIFFERENT FILL-ORIGIN LEVEL: 0
STLB AVERAGE MISS LATENCY: 64.2394 cycles
STLB RQ	ACCESS:    4977021	FORWARD:          0	MERGED:    1449977	TO_CACHE:    3527044

STLB Hit, L1D data hit: 0
STLB Hit, L2C data hit: 0
STLB Hit, LLC data hit: 0
STLB Hit, LLC data miss: 0
STLB STLB hints to L2: 0
L1D TOTAL     ACCESS:   13721975  HIT:    9933942  MISS:    3788033  HIT %:    72.3944  MISS %:    27.6056   MPKI: 75.7607
L1D LOAD      ACCESS:    8380045  HIT:    8157210  MISS:     222835  HIT %:    97.3409  MISS %:    2.65911   MPKI: 4.4567
L1D RFO       ACCESS:     654316  HIT:     653757  MISS:        559  HIT %:    99.9146  MISS %:  0.0854327   MPKI: 0.01118
L1D PREFETCH  ACCESS:    4687614  HIT:    1122975  MISS:    3564639  HIT %:    23.9562  MISS %:    76.0438   MPKI: 71.2928
AGUS PREFETCH L1 MISS: 0
L1D PREFETCH  REQUESTED:    9902716  ISSUED:    9858433  USEFUL:    3295573  USELESS:     269072
L1D USEFUL LOAD PREFETCHES:    3295573 PREFETCH ISSUED TO LOWER LEVEL:    3721947  ACCURACY: 88.5443
L1D TIMELY PREFETCHES:    3295573 LATE PREFETCHES: 156882 DROPPED PREFETCHES: 0
L1D PREFETCHES SAME FILL-ORIGIN LEVEL: 3721947 DIFFERENT FILL-ORIGIN LEVEL: 0
L1D AVERAGE MISS LATENCY: 120.195 cycles
L1D RQ	ACCESS:   17950681	FORWARD:          0	MERGED:    9507255	TO_CACHE:    8441916
L1D WQ	ACCESS:     726205	FORWARD:       1510	MERGED:      71885	TO_CACHE:     654320
L1D PQ	ACCESS:    4949898	FORWARD:          0	MERGED:      41363	TO_CACHE:    4908535

L1D UNIQUE REGIONS ACCESSED: 0
L1D REGIONS CONFLICTS: 0
L1D Cross Page Prefetch Requests: 239278
L1D Same Page Prefetch Requests: 10308135
L1D ROI Sum of L1D PQ occupancy: 72188085
L1D PREFETCHES PUSHED FROM L2C: 0
L1I TOTAL     ACCESS:   11348202  HIT:   11348202  MISS:          0  HIT %:        100  MISS %:          0   MPKI: 0
L1I LOAD      ACCESS:   11348202  HIT:   11348202  MISS:          0  HIT %:        100  MISS %:          0   MPKI: 0
L1I PREFETCH  REQUESTED:          0  ISSUED:          0  USEFUL:          0  USELESS:          0
L1I USEFUL LOAD PREFETCHES:          0 PREFETCH ISSUED TO LOWER LEVEL:          0  ACCURACY: -nan
L1I TIMELY PREFETCHES:          0 LATE PREFETCHES: 0 DROPPED PREFETCHES: 0
L1I PREFETCHES SAME FILL-ORIGIN LEVEL: 0 DIFFERENT FILL-ORIGIN LEVEL: 0
L1I AVERAGE MISS LATENCY: -nan cycles
L1I RQ	ACCESS:   16049746	FORWARD:          0	MERGED:    4701544	TO_CACHE:   11348202

BTB TOTAL     ACCESS:   11928195  HIT:   11928097  MISS:         98  HIT %:    99.9992  MISS %: 0.000821583   MPKI: 0.00196
BTB BRANCH_DIRECT_JUMP	ACCESS:     168848  HIT:     168822  MISS:         26
BTB BRANCH_INDIRECT	ACCESS:          0  HIT:          0  MISS:          0
BTB BRANCH_CONDITIONAL	ACCESS:   11592637  HIT:   11592588  MISS:         49
BTB BRANCH_DIRECT_CALL	ACCESS:      83355  HIT:      83345  MISS:         10
BTB BRANCH_INDIRECT_CALL	ACCESS:          0  HIT:          0  MISS:          0
BTB BRANCH_RETURN	ACCESS:      83355  HIT:      83342  MISS:         13
BTB BRANCH_OTHER ACCESS:          0  HIT:          0  MISS:          0

L2C TOTAL     ACCESS:    3861587  HIT:     198480  MISS:    3663107  HIT %:    5.13986  MISS %:    94.8601   MPKI: 73.2621
L2C LOAD      ACCESS:      65929  HIT:      16617  MISS:      49312  HIT %:    25.2044  MISS %:    74.7956   MPKI: 0.98624
L2C DATA LOAD MPKI: 0.98624
L2C INSTRUCTION LOAD MPKI: 0
L2C RFO       ACCESS:        137  HIT:         80  MISS:         57  HIT %:    58.3942  MISS %:    41.6058   MPKI: 0.00114
L2C PREFETCH  ACCESS:    3721944  HIT:     123849  MISS:    3598095  HIT %:    3.32754  MISS %:    96.6725   MPKI: 71.9619
AGUS PREFETCH L1 MISS: 0
L2C DATA PREFETCH MPKI: 71.9619
L2C INSTRUCTION PREFETCH MPKI: 0
L2C WRITEBACK ACCESS:       6038  HIT:       5876  MISS:        162  HIT %:     97.317  MISS %:    2.68301   MPKI: 0.00324
L2C LOAD TRANSLATION ACCESS:      13018  HIT:       7241  MISS:       5777  HIT %:     55.623  MISS %:     44.377   MPKI: 0.11554
L2C TRANSLATION FROM L1D PREFETCHER ACCESS:      54521  HIT:      44817  MISS:       9704  HIT %:    82.2014  MISS %:    17.7986   MPKI: 0.19408
L2C PREFETCH  REQUESTED:          0  ISSUED:          0  USEFUL:      13429  USELESS:    3594290
L2C USEFUL LOAD PREFETCHES:      13429 PREFETCH ISSUED TO LOWER LEVEL:    3598098  ACCURACY: 0.373225
L2C TIMELY PREFETCHES:      13429 LATE PREFETCHES: 0 DROPPED PREFETCHES: 0
L2C PREFETCHES SAME FILL-ORIGIN LEVEL: 0 DIFFERENT FILL-ORIGIN LEVEL: 0
L2C AVERAGE MISS LATENCY: 109.378 cycles
L2C RQ	ACCESS:     133628	FORWARD:          0	MERGED:          0	TO_CACHE:     133605
L2C WQ	ACCESS:       6038	FORWARD:         23	MERGED:          0	TO_CACHE:       6038
L2C PQ	ACCESS:    3721947	FORWARD:          0	MERGED:          0	TO_CACHE:    3721947

L2C Instructions Evicting Data 0
L2C Translations Evicting Data 15438
L2C Data Evicting Data 3632037
L2C Instructions Evicting Instructions 0
L2C Translations Evicting Instructions 0
L2C Data Evicting Instructions 0
L2C Instructions Evicting Translations 0
L2C Translations Evicting Translations 43
L2C Data Evicting Translations 15427
L2C Dense regions hint from L2: 0
PSCL5 TOTAL     ACCESS:      66025  HIT:      66025  MISS:          0  HIT %:        100  MISS %:          0   MPKI: 0
PSCL5 LOAD TRANSLATION ACCESS:      12206  HIT:      12206  MISS:          0  HIT %:        100  MISS %:          0   MPKI: 0
PSCL5 TRANSLATION FROM L1D PREFETCHER ACCESS:      53819  HIT:      53819  MISS:          0  HIT %:        100  MISS %:          0   MPKI: 0
PSCL5 PREFETCH  REQUESTED:          0  ISSUED:          0  USEFUL:          0  USELESS:          0
PSCL5 USEFUL LOAD PREFETCHES:          0 PREFETCH ISSUED TO LOWER LEVEL:          0  ACCURACY: -nan
PSCL5 TIMELY PREFETCHES:          0 LATE PREFETCHES: 0 DROPPED PREFETCHES: 0
PSCL5 PREFETCHES SAME FILL-ORIGIN LEVEL: 0 DIFFERENT FILL-ORIGIN LEVEL: 0

PSCL4 TOTAL     ACCESS:      66025  HIT:      66025  MISS:          0  HIT %:        100  MISS %:          0   MPKI: 0
PSCL4 LOAD TRANSLATION ACCESS:      12206  HIT:      12206  MISS:          0  HIT %:        100  MISS %:          0   MPKI: 0
PSCL4 TRANSLATION FROM L1D PREFETCHER ACCESS:      53819  HIT:      53819  MISS:          0  HIT %:        100  MISS %:          0   MPKI: 0
PSCL4 PREFETCH  REQUESTED:          0  ISSUED:          0  USEFUL:          0  USELESS:          0
PSCL4 USEFUL LOAD PREFETCHES:          0 PREFETCH ISSUED TO LOWER LEVEL:          0  ACCURACY: -nan
PSCL4 TIMELY PREFETCHES:          0 LATE PREFETCHES: 0 DROPPED PREFETCHES: 0
PSCL4 PREFETCHES SAME FILL-ORIGIN LEVEL: 0 DIFFERENT FILL-ORIGIN LEVEL: 0

PSCL3 TOTAL     ACCESS:      66023  HIT:      66016  MISS:          7  HIT %:    99.9894  MISS %:  0.0106024   MPKI: 0.00014
PSCL3 LOAD TRANSLATION ACCESS:      12205  HIT:      12198  MISS:          7  HIT %:    99.9426  MISS %:  0.0573535   MPKI: 0.00014
PSCL3 TRANSLATION FROM L1D PREFETCHER ACCESS:      53818  HIT:      53818  MISS:          0  HIT %:        100  MISS %:          0   MPKI: 0
PSCL3 PREFETCH  REQUESTED:          0  ISSUED:          0  USEFUL:          0  USELESS:          0
PSCL3 USEFUL LOAD PREFETCHES:          0 PREFETCH ISSUED TO LOWER LEVEL:          0  ACCURACY: -nan
PSCL3 TIMELY PREFETCHES:          0 LATE PREFETCHES: 0 DROPPED PREFETCHES: 0
PSCL3 PREFETCHES SAME FILL-ORIGIN LEVEL: 0 DIFFERENT FILL-ORIGIN LEVEL: 0

PSCL2 TOTAL     ACCESS:      66025  HIT:      64517  MISS:       1508  HIT %:     97.716  MISS %:    2.28398   MPKI: 0.03016
PSCL2 LOAD TRANSLATION ACCESS:      12907  HIT:      11399  MISS:       1508  HIT %:    88.3164  MISS %:    11.6836   MPKI: 0.03016
PSCL2 TRANSLATION FROM L1D PREFETCHER ACCESS:      53118  HIT:      53118  MISS:          0  HIT %:        100  MISS %:          0   MPKI: 0
PSCL2 PREFETCH  REQUESTED:          0  ISSUED:          0  USEFUL:          0  USELESS:          0
PSCL2 USEFUL LOAD PREFETCHES:          0 PREFETCH ISSUED TO LOWER LEVEL:          0  ACCURACY: -nan
PSCL2 TIMELY PREFETCHES:          0 LATE PREFETCHES: 0 DROPPED PREFETCHES: 0
PSCL2 PREFETCHES SAME FILL-ORIGIN LEVEL: 0 DIFFERENT FILL-ORIGIN LEVEL: 0

LLC TOTAL     ACCESS:    3668711  HIT:      24991  MISS:    3643720  HIT %:   0.681193  MISS %:    99.3188   MPKI: 72.8744
LLC LOAD      ACCESS:      49312  HIT:       1307  MISS:      48005  HIT %:    2.65047  MISS %:    97.3495   MPKI: 0.9601
LLC RFO       ACCESS:         57  HIT:          0  MISS:         57  HIT %:          0  MISS %:        100   MPKI: 0.00114
LLC PREFETCH  ACCESS:    3598095  HIT:      17239  MISS:    3580856  HIT %:   0.479115  MISS %:    99.5209   MPKI: 71.6171
AGUS PREFETCH L1 MISS: 0
LLC WRITEBACK ACCESS:       5766  HIT:       5682  MISS:         84  HIT %:    98.5432  MISS %:    1.45682   MPKI: 0.00168
LLC LOAD TRANSLATION ACCESS:       5777  HIT:        504  MISS:       5273  HIT %:    8.72425  MISS %:    91.2757   MPKI: 0.10546
LLC TRANSLATION FROM L1D PREFETCHER ACCESS:       9704  HIT:        259  MISS:       9445  HIT %:      2.669  MISS %:     97.331   MPKI: 0.1889
LLC PREFETCH  REQUESTED:          0  ISSUED:          0  USEFUL:        261  USELESS:    3589547
LLC USEFUL LOAD PREFETCHES:        261 PREFETCH ISSUED TO LOWER LEVEL:    3580858  ACCURACY: 0.00728876
LLC TIMELY PREFETCHES:        261 LATE PREFETCHES: 0 DROPPED PREFETCHES: 0
LLC PREFETCHES SAME FILL-ORIGIN LEVEL: 0 DIFFERENT FILL-ORIGIN LEVEL: 0
LLC AVERAGE MISS LATENCY: 79.8016 cycles
LLC RQ	ACCESS:      64850	FORWARD:          0	MERGED:          0	TO_CACHE:      64850
LLC WQ	ACCESS:       5766	FORWARD:          0	MERGED:          0	TO_CACHE:       5766
LLC PQ	ACCESS:    3598098	FORWARD:          0	MERGED:          0	TO_CACHE:    3598098

LLC Dense regions hint to LLC: 0

RAW hits: 3921
Loads Generated: 17954602
Loads sent to L1D: 17950681
Stores Generated: 726205
Stores sent to L1D: 726205
Major fault: 0 Minor fault: 48887
Allocated PAGES: 48887

stream: 
stream:times selected: 11004969
stream:pref_filled: 6657586
stream:pref_useful: 6257003
stream:pref_late: 134467
stream:misses: 22923
stream:misses_by_poll: 0

CS: 
CS:times selected: 5858721
CS:pref_filled: 162693
CS:pref_useful: 144323
CS:pref_late: 9776
CS:misses: 44476
CS:misses_by_poll: 335

CPLX: 
CPLX:times selected: 5141691
CPLX:pref_filled: 394095
CPLX:pref_useful: 216388
CPLX:pref_late: 1693
CPLX:misses: 121284
CPLX:misses_by_poll: 869

ISB: 
ISB:times selected:4366497
ISB:pref_filled: 40551
ISB:pref_useful: 38309
ISB:pref_late: 38583
ISB:misses: 264527
ISB:misses_by_poll: 568

NL_L1: 
NL:times selected: 4284
NL:pref_filled: 2047
NL:pref_useful: 2014
NL:pref_late: 275
NL:misses: 623
NL:misses_by_poll: 0

total selections: 26376162
total_filled: 3564639
total_useful: 3295573
total_late: 188347
total_polluted: 1772
total_misses_after_warmup: 284705
conflicts: 63082

test: 2624731

DRAM Statistics
 CHANNEL 0
 RQ ROW_BUFFER_HIT:    3335080  ROW_BUFFER_MISS:     308556
 DBUS_CONGESTED:       2304
 WQ ROW_BUFFER_HIT:        998  ROW_BUFFER_MISS:       4698  FULL:          0

 AVG_CONGESTED_CYCLE: 4
 All warmup complete: 2
Channel 0 Bank busy for read cycles: 0
Channel 0 Bank busy for write cycles: 0
Channel 0
Rank 0
0banks busy for read cycles: 24828555
0banks busy for write cycles: 2798
1banks busy for read cycles: 31145636
1banks busy for write cycles: 1099064
2banks busy for read cycles: 52180858
2banks busy for write cycles: 431327
3banks busy for read cycles: 11703170
3banks busy for write cycles: 205948
4banks busy for read cycles: 2717417
4banks busy for write cycles: 83192
5banks busy for read cycles: 1238660
5banks busy for write cycles: 43826
6banks busy for read cycles: 2320901
6banks busy for write cycles: 19327
7banks busy for read cycles: 1460739
7banks busy for write cycles: 8110
8banks busy for read cycles: 152591
8banks busy for write cycles: 3312

CPU 0 Branch Prediction Accuracy: 99.1302% MPKI: 3.1024 Average ROB Occupancy at Mispredict: 96.87
Branch types
NOT_BRANCH: 32166917 64.3338%
BRANCH_DIRECT_JUMP: 168848 0.337696%
BRANCH_INDIRECT: 0 0%
BRANCH_CONDITIONAL: 17497543 34.9951%
BRANCH_DIRECT_CALL: 83355 0.16671%
BRANCH_INDIRECT_CALL: 0 0%
BRANCH_RETURN: 83355 0.16671%
BRANCH_OTHER: 0 0%

DRAM PAGES: 1048576
Allocated PAGES: 48887
