
*** ChampSim Multicore Out-of-Order Simulator ***

Warmup Instructions: 50000000
Simulation Instructions: 50000000
Number of CPUs: 1
LLC sets: 2048
LLC ways: 16
Off-chip DRAM Size: 4096 MB Channels: 1 Width: 64-bit Data Rate: 6400 MT/s
CPU 0 runs traces/SPEC-CPU2017/602.gcc_s-2226B.champsimtrace.xz
.xz
CPU 0 Bimodal branch predictor
BTB has LRU replacement policy
ITLB has LRU replacement policy
DTLB has LRU replacement policy
STLB has LRU replacement policy
L1I has LRU replacement policy
L1D has LRU replacement policy
L2C has LRU replacement policy
LLC has LRU replacement policy
Heartbeat CPU 0 instructions: 10000001 cycles: 3758403 heartbeat IPC: 2.6607 cumulative IPC: 2.6607 (Simulation time: 0 hr 5 min 38 sec) 
Heartbeat CPU 0 instructions: 20000000 cycles: 7517101 heartbeat IPC: 2.6605 cumulative IPC: 2.6606 (Simulation time: 0 hr 12 min 20 sec) 
Heartbeat CPU 0 instructions: 30000001 cycles: 11271159 heartbeat IPC: 2.66378 cumulative IPC: 2.66166 (Simulation time: 0 hr 19 min 36 sec) 
Heartbeat CPU 0 instructions: 40000000 cycles: 15022925 heartbeat IPC: 2.66541 cumulative IPC: 2.6626 (Simulation time: 0 hr 26 min 55 sec) 
Heartbeat CPU 0 instructions: 50000000 cycles: 18773442 heartbeat IPC: 2.6663 cumulative IPC: 2.66334 (Simulation time: 0 hr 33 min 26 sec) 

Warmup complete CPU 0 instructions: 50000004 cycles: 18773443 (Simulation time: 0 hr 33 min 26 sec) 

Heartbeat CPU 0 instructions: 60000000 cycles: 49105932 heartbeat IPC: 0.329679 cumulative IPC: 0.329679 (Simulation time: 0 hr 34 min 57 sec) 
Heartbeat CPU 0 instructions: 70000000 cycles: 78979395 heartbeat IPC: 0.334745 cumulative IPC: 0.332193 (Simulation time: 0 hr 36 min 28 sec) 
Heartbeat CPU 0 instructions: 80000000 cycles: 106522037 heartbeat IPC: 0.363073 cumulative IPC: 0.341886 (Simulation time: 0 hr 37 min 55 sec) 
Heartbeat CPU 0 instructions: 90000001 cycles: 133191665 heartbeat IPC: 0.374958 cumulative IPC: 0.349595 (Simulation time: 0 hr 39 min 24 sec) 
Heartbeat CPU 0 instructions: 100000000 cycles: 159840756 heartbeat IPC: 0.375247 cumulative IPC: 0.354441 (Simulation time: 0 hr 40 min 51 sec) 
Finished CPU 0 instructions: 50000001 cycles: 141067333 cumulative IPC: 0.354441 (Simulation time: 0 hr 40 min 51 sec) 

ChampSim completed all CPUs

Region of Interest Statistics

CPU 0 cumulative IPC: 0.354441 instructions: 50000001 cycles: 141067333
ITLB TOTAL     ACCESS:   11186649  HIT:   11186649  MISS:          0  HIT %:        100  MISS %:          0   MPKI: 0
ITLB LOAD TRANSLATION ACCESS:   11186649  HIT:   11186649  MISS:          0  HIT %:        100  MISS %:          0   MPKI: 0
ITLB PREFETCH  REQUESTED:          0  ISSUED:          0  USEFUL:          0  USELESS:          0
ITLB USEFUL LOAD PREFETCHES:          0 PREFETCH ISSUED TO LOWER LEVEL:          0  ACCURACY: -nan
ITLB TIMELY PREFETCHES:          0 LATE PREFETCHES: 0 DROPPED PREFETCHES: 0
ITLB PREFETCHES SAME FILL-ORIGIN LEVEL: 0 DIFFERENT FILL-ORIGIN LEVEL: 0
ITLB AVERAGE MISS LATENCY: -nan cycles
ITLB RQ	ACCESS:   11359501	FORWARD:          0	MERGED:     172853	TO_CACHE:   11186648

DTLB TOTAL     ACCESS:    7734886  HIT:    7666398  MISS:      68488  HIT %:    99.1146  MISS %:   0.885443   MPKI: 1.36976
DTLB LOAD TRANSLATION ACCESS:    7734886  HIT:    7666398  MISS:      68488  HIT %:    99.1146  MISS %:   0.885443   MPKI: 1.36976
DTLB PREFETCH  REQUESTED:          0  ISSUED:          0  USEFUL:          0  USELESS:          0
DTLB USEFUL LOAD PREFETCHES:          0 PREFETCH ISSUED TO LOWER LEVEL:          0  ACCURACY: -nan
DTLB TIMELY PREFETCHES:          0 LATE PREFETCHES: 0 DROPPED PREFETCHES: 0
DTLB PREFETCHES SAME FILL-ORIGIN LEVEL: 0 DIFFERENT FILL-ORIGIN LEVEL: 0
DTLB AVERAGE MISS LATENCY: 12.9199 cycles
DTLB RQ	ACCESS:    9099163	FORWARD:          0	MERGED:    1364268	TO_CACHE:    7734895

STLB TOTAL     ACCESS:    3594651  HIT:    3528589  MISS:      66062  HIT %:    98.1622  MISS %:    1.83779   MPKI: 1.32124
STLB LOAD TRANSLATION ACCESS:      68488  HIT:      66634  MISS:       1854  HIT %:     97.293  MISS %:    2.70704   MPKI: 0.03708
STLB TRANSLATION FROM L1D PREFETCHER ACCESS:    3526163  HIT:    3461955  MISS:      64208  HIT %:    98.1791  MISS %:     1.8209   MPKI: 1.28416
STLB PREFETCH  REQUESTED:          0  ISSUED:          0  USEFUL:      64195  USELESS:         22
STLB USEFUL LOAD PREFETCHES:      64195 PREFETCH ISSUED TO LOWER LEVEL:          0  ACCURACY: inf
STLB TIMELY PREFETCHES:      64195 LATE PREFETCHES: 20 DROPPED PREFETCHES: 0
STLB PREFETCHES SAME FILL-ORIGIN LEVEL: 0 DIFFERENT FILL-ORIGIN LEVEL: 0
STLB AVERAGE MISS LATENCY: 80.5693 cycles
STLB RQ	ACCESS:    5396188	FORWARD:          0	MERGED:    1800398	TO_CACHE:    3595790

STLB Hit, L1D data hit: 0
STLB Hit, L2C data hit: 0
STLB Hit, LLC data hit: 0
STLB Hit, LLC data miss: 0
STLB STLB hints to L2: 0
L1D TOTAL     ACCESS:   14189910  HIT:   10390996  MISS:    3798914  HIT %:    73.2281  MISS %:    26.7719   MPKI: 75.9783
L1D LOAD      ACCESS:    8348260  HIT:    8049824  MISS:     298436  HIT %:    96.4252  MISS %:    3.57483   MPKI: 5.96872
L1D RFO       ACCESS:     654311  HIT:     653700  MISS:        611  HIT %:    99.9066  MISS %:  0.0933807   MPKI: 0.01222
L1D PREFETCH  ACCESS:    5187339  HIT:    1687472  MISS:    3499867  HIT %:    32.5306  MISS %:    67.4694   MPKI: 69.9973
AGUS PREFETCH L1 MISS: 0
L1D PREFETCH  REQUESTED:   11030255  ISSUED:   10655409  USEFUL:    3221436  USELESS:     278415
L1D USEFUL LOAD PREFETCHES:    3221436 PREFETCH ISSUED TO LOWER LEVEL:    3618579  ACCURACY: 89.0249
L1D TIMELY PREFETCHES:    3221436 LATE PREFETCHES: 118316 DROPPED PREFETCHES: 0
L1D PREFETCHES SAME FILL-ORIGIN LEVEL: 3618579 DIFFERENT FILL-ORIGIN LEVEL: 0
L1D AVERAGE MISS LATENCY: 122.969 cycles
L1D RQ	ACCESS:   17950690	FORWARD:          0	MERGED:    9504330	TO_CACHE:    8444848
L1D WQ	ACCESS:     726205	FORWARD:       1512	MERGED:      71890	TO_CACHE:     654315
L1D PQ	ACCESS:    5327709	FORWARD:          0	MERGED:          9	TO_CACHE:    5327700

L1D UNIQUE REGIONS ACCESSED: 0
L1D REGIONS CONFLICTS: 0
L1D Cross Page Prefetch Requests: 891565
L1D Same Page Prefetch Requests: 9213836
L1D ROI Sum of L1D PQ occupancy: 92951220
L1D PREFETCHES PUSHED FROM L2C: 0
L1I TOTAL     ACCESS:   11359501  HIT:   11359501  MISS:          0  HIT %:        100  MISS %:          0   MPKI: 0
L1I LOAD      ACCESS:   11359501  HIT:   11359501  MISS:          0  HIT %:        100  MISS %:          0   MPKI: 0
L1I PREFETCH  REQUESTED:          0  ISSUED:          0  USEFUL:          0  USELESS:          0
L1I USEFUL LOAD PREFETCHES:          0 PREFETCH ISSUED TO LOWER LEVEL:          0  ACCURACY: -nan
L1I TIMELY PREFETCHES:          0 LATE PREFETCHES: 0 DROPPED PREFETCHES: 0
L1I PREFETCHES SAME FILL-ORIGIN LEVEL: 0 DIFFERENT FILL-ORIGIN LEVEL: 0
L1I AVERAGE MISS LATENCY: -nan cycles
L1I RQ	ACCESS:   16081995	FORWARD:          0	MERGED:    4722494	TO_CACHE:   11359501

BTB TOTAL     ACCESS:   11928195  HIT:   11928097  MISS:         98  HIT %:    99.9992  MISS %: 0.000821583   MPKI: 0.00196
BTB BRANCH_DIRECT_JUMP	ACCESS:     168848  HIT:     168822  MISS:         26
BTB BRANCH_INDIRECT	ACCESS:          0  HIT:          0  MISS:          0
BTB BRANCH_CONDITIONAL	ACCESS:   11592637  HIT:   11592588  MISS:         49
BTB BRANCH_DIRECT_CALL	ACCESS:      83355  HIT:      83345  MISS:         10
BTB BRANCH_INDIRECT_CALL	ACCESS:          0  HIT:          0  MISS:          0
BTB BRANCH_RETURN	ACCESS:      83355  HIT:      83342  MISS:         13
BTB BRANCH_OTHER ACCESS:          0  HIT:          0  MISS:          0

L2C TOTAL     ACCESS:    3872591  HIT:     224171  MISS:    3648420  HIT %:    5.78866  MISS %:    94.2113   MPKI: 72.9684
L2C LOAD      ACCESS:     180098  HIT:      18523  MISS:     161575  HIT %:     10.285  MISS %:     89.715   MPKI: 3.2315
L2C DATA LOAD MPKI: 3.2315
L2C INSTRUCTION LOAD MPKI: 0
L2C RFO       ACCESS:        223  HIT:        108  MISS:        115  HIT %:    48.4305  MISS %:    51.5695   MPKI: 0.0023
L2C PREFETCH  ACCESS:    3618570  HIT:     148163  MISS:    3470407  HIT %:    4.09452  MISS %:    95.9055   MPKI: 69.4081
AGUS PREFETCH L1 MISS: 0
L2C DATA PREFETCH MPKI: 69.4081
L2C INSTRUCTION PREFETCH MPKI: 0
L2C WRITEBACK ACCESS:       6080  HIT:       5920  MISS:        160  HIT %:    97.3684  MISS %:    2.63158   MPKI: 0.0032
L2C LOAD TRANSLATION ACCESS:       2002  HIT:        867  MISS:       1135  HIT %:    43.3067  MISS %:    56.6933   MPKI: 0.0227
L2C TRANSLATION FROM L1D PREFETCHER ACCESS:      65618  HIT:      50590  MISS:      15028  HIT %:    77.0977  MISS %:    22.9023   MPKI: 0.30056
L2C PREFETCH  REQUESTED:          0  ISSUED:          0  USEFUL:      18499  USELESS:    3466413
L2C USEFUL LOAD PREFETCHES:      18499 PREFETCH ISSUED TO LOWER LEVEL:    3470415  ACCURACY: 0.533049
L2C TIMELY PREFETCHES:      18499 LATE PREFETCHES: 0 DROPPED PREFETCHES: 0
L2C PREFETCHES SAME FILL-ORIGIN LEVEL: 0 DIFFERENT FILL-ORIGIN LEVEL: 0
L2C AVERAGE MISS LATENCY: 113.115 cycles
L2C RQ	ACCESS:     247963	FORWARD:          0	MERGED:          0	TO_CACHE:     247941
L2C WQ	ACCESS:       6080	FORWARD:         23	MERGED:          0	TO_CACHE:       6080
L2C PQ	ACCESS:    3618579	FORWARD:          0	MERGED:          0	TO_CACHE:    3618578

L2C Instructions Evicting Data 0
L2C Translations Evicting Data 16105
L2C Data Evicting Data 3615997
L2C Instructions Evicting Instructions 0
L2C Translations Evicting Instructions 0
L2C Data Evicting Instructions 0
L2C Instructions Evicting Translations 0
L2C Translations Evicting Translations 58
L2C Data Evicting Translations 16100
L2C Dense regions hint from L2: 0
PSCL5 TOTAL     ACCESS:      66062  HIT:      66062  MISS:          0  HIT %:        100  MISS %:          0   MPKI: 0
PSCL5 LOAD TRANSLATION ACCESS:       1834  HIT:       1834  MISS:          0  HIT %:        100  MISS %:          0   MPKI: 0
PSCL5 TRANSLATION FROM L1D PREFETCHER ACCESS:      64228  HIT:      64228  MISS:          0  HIT %:        100  MISS %:          0   MPKI: 0
PSCL5 PREFETCH  REQUESTED:          0  ISSUED:          0  USEFUL:          0  USELESS:          0
PSCL5 USEFUL LOAD PREFETCHES:          0 PREFETCH ISSUED TO LOWER LEVEL:          0  ACCURACY: -nan
PSCL5 TIMELY PREFETCHES:          0 LATE PREFETCHES: 0 DROPPED PREFETCHES: 0
PSCL5 PREFETCHES SAME FILL-ORIGIN LEVEL: 0 DIFFERENT FILL-ORIGIN LEVEL: 0

PSCL4 TOTAL     ACCESS:      66062  HIT:      66062  MISS:          0  HIT %:        100  MISS %:          0   MPKI: 0
PSCL4 LOAD TRANSLATION ACCESS:       1834  HIT:       1834  MISS:          0  HIT %:        100  MISS %:          0   MPKI: 0
PSCL4 TRANSLATION FROM L1D PREFETCHER ACCESS:      64228  HIT:      64228  MISS:          0  HIT %:        100  MISS %:          0   MPKI: 0
PSCL4 PREFETCH  REQUESTED:          0  ISSUED:          0  USEFUL:          0  USELESS:          0
PSCL4 USEFUL LOAD PREFETCHES:          0 PREFETCH ISSUED TO LOWER LEVEL:          0  ACCURACY: -nan
PSCL4 TIMELY PREFETCHES:          0 LATE PREFETCHES: 0 DROPPED PREFETCHES: 0
PSCL4 PREFETCHES SAME FILL-ORIGIN LEVEL: 0 DIFFERENT FILL-ORIGIN LEVEL: 0

PSCL3 TOTAL     ACCESS:      66056  HIT:      66049  MISS:          7  HIT %:    99.9894  MISS %:  0.0105971   MPKI: 0.00014
PSCL3 LOAD TRANSLATION ACCESS:       1837  HIT:       1830  MISS:          7  HIT %:    99.6189  MISS %:   0.381056   MPKI: 0.00014
PSCL3 TRANSLATION FROM L1D PREFETCHER ACCESS:      64219  HIT:      64219  MISS:          0  HIT %:        100  MISS %:          0   MPKI: 0
PSCL3 PREFETCH  REQUESTED:          0  ISSUED:          0  USEFUL:          0  USELESS:          0
PSCL3 USEFUL LOAD PREFETCHES:          0 PREFETCH ISSUED TO LOWER LEVEL:          0  ACCURACY: -nan
PSCL3 TIMELY PREFETCHES:          0 LATE PREFETCHES: 0 DROPPED PREFETCHES: 0
PSCL3 PREFETCHES SAME FILL-ORIGIN LEVEL: 0 DIFFERENT FILL-ORIGIN LEVEL: 0

PSCL2 TOTAL     ACCESS:      66062  HIT:      64510  MISS:       1552  HIT %:    97.6507  MISS %:    2.34931   MPKI: 0.03104
PSCL2 LOAD TRANSLATION ACCESS:       3219  HIT:       1667  MISS:       1552  HIT %:    51.7863  MISS %:    48.2137   MPKI: 0.03104
PSCL2 TRANSLATION FROM L1D PREFETCHER ACCESS:      62843  HIT:      62843  MISS:          0  HIT %:        100  MISS %:          0   MPKI: 0
PSCL2 PREFETCH  REQUESTED:          0  ISSUED:          0  USEFUL:          0  USELESS:          0
PSCL2 USEFUL LOAD PREFETCHES:          0 PREFETCH ISSUED TO LOWER LEVEL:          0  ACCURACY: -nan
PSCL2 TIMELY PREFETCHES:          0 LATE PREFETCHES: 0 DROPPED PREFETCHES: 0
PSCL2 PREFETCHES SAME FILL-ORIGIN LEVEL: 0 DIFFERENT FILL-ORIGIN LEVEL: 0

LLC TOTAL     ACCESS:    3654022  HIT:      26233  MISS:    3627789  HIT %:   0.717921  MISS %:    99.2821   MPKI: 72.5558
LLC LOAD      ACCESS:     161575  HIT:       1205  MISS:     160370  HIT %:   0.745784  MISS %:    99.2542   MPKI: 3.2074
LLC RFO       ACCESS:        115  HIT:          1  MISS:        114  HIT %:   0.869565  MISS %:    99.1304   MPKI: 0.00228
LLC PREFETCH  ACCESS:    3470407  HIT:      18013  MISS:    3452394  HIT %:   0.519046  MISS %:     99.481   MPKI: 69.0479
AGUS PREFETCH L1 MISS: 0
LLC WRITEBACK ACCESS:       5762  HIT:       5675  MISS:         87  HIT %:    98.4901  MISS %:    1.50989   MPKI: 0.00174
LLC LOAD TRANSLATION ACCESS:       1135  HIT:        279  MISS:        856  HIT %:    24.5815  MISS %:    75.4185   MPKI: 0.01712
LLC TRANSLATION FROM L1D PREFETCHER ACCESS:      15028  HIT:       1060  MISS:      13968  HIT %:     7.0535  MISS %:    92.9465   MPKI: 0.27936
LLC PREFETCH  REQUESTED:          0  ISSUED:          0  USEFUL:       1129  USELESS:    3462936
LLC USEFUL LOAD PREFETCHES:       1129 PREFETCH ISSUED TO LOWER LEVEL:    3452400  ACCURACY: 0.0327019
LLC TIMELY PREFETCHES:       1129 LATE PREFETCHES: 0 DROPPED PREFETCHES: 0
LLC PREFETCHES SAME FILL-ORIGIN LEVEL: 0 DIFFERENT FILL-ORIGIN LEVEL: 0
LLC AVERAGE MISS LATENCY: 83.5886 cycles
LLC RQ	ACCESS:     177853	FORWARD:          0	MERGED:          0	TO_CACHE:     177853
LLC WQ	ACCESS:       5762	FORWARD:          0	MERGED:          0	TO_CACHE:       5762
LLC PQ	ACCESS:    3470415	FORWARD:          0	MERGED:          0	TO_CACHE:    3470415

LLC Dense regions hint to LLC: 0

RAW hits: 3912
Loads Generated: 17954602
Loads sent to L1D: 17950690
Stores Generated: 726205
Stores sent to L1D: 726205
Major fault: 0 Minor fault: 48887
Allocated PAGES: 48887

stream: 
stream:times selected: 15031053
stream:pref_reqs: 84852665
stream:pref_reqs_filtered_out: 76566774
stream:pref_filled: 5747908
stream:pref_useful: 5390027
stream:pref_late: 102322
stream:misses: 7089
stream:misses_by_poll: 0

CS: 
CS:times selected: 11339645
CS:pref_reqs: 33477470
CS:pref_reqs_filtered_out: 32812045
CS:pref_filled: 39691
CS:pref_useful: 38725
CS:pref_late: 6645
CS:misses: 425043
CS:misses_by_poll: 254

CPLX: 
CPLX:times selected: 3688109
CPLX:pref_reqs: 7401651
CPLX:pref_reqs_filtered_out: 6121374
CPLX:pref_filled: 965947
CPLX:pref_useful: 839019
CPLX:pref_late: 12234
CPLX:misses: 68873
CPLX:misses_by_poll: 10835

ISB: 
ISB:total access:20491868
ISB:times selected:1730014
ISB:canary counter:0
ISB:pref_reqs: 4278451
ISB:pref_reqs_filtered_out: 3217369
ISB:pref_filled: 326633
ISB:pref_useful: 281828
ISB:pref_late: 1148
ISB:misses: 168553
ISB:misses_by_poll: 1249
ISB:Stream end: 1076309
ISB:No Prediction: 18761854 91.5576
ISB:No translation: 979609864 4780.48
ISB:Predictions: 1004003 4.89952

NL_L1: 
NL:times selected: 1578
NL:pref_reqs: 1578
NL:pref_reqs_filtered_out: 1426
NL:pref_filled: 67
NL:pref_useful: 56
NL:pref_late: 3
NL:misses: 67
NL:misses_by_poll: 0

Coverage: 91.5214
total selections: 31790399
total_filled: 3499867
total_useful: 3221436
total_late: 131066
total_polluted: 12338
total_misses_after_warmup: 395023
conflicts: 63015

test: 0
Prefetcher final stats
Training Unit Size: 37
Addr table size: 419022 419023
Stream divergence: 24006 0.117149
Stream divergence -- new stream: 0
--------------------------Training unit table ------------------------

DRAM Statistics
 CHANNEL 0
 RQ ROW_BUFFER_HIT:    3276864  ROW_BUFFER_MISS:     350840
 DBUS_CONGESTED:       1106
 WQ ROW_BUFFER_HIT:       1224  ROW_BUFFER_MISS:       4475  FULL:          0

 AVG_CONGESTED_CYCLE: 4
 All warmup complete: 2
Channel 0 Bank busy for read cycles: 0
Channel 0 Bank busy for write cycles: 0
Channel 0
Rank 0
0banks busy for read cycles: 38541266
0banks busy for write cycles: 3149
1banks busy for read cycles: 31277847
1banks busy for write cycles: 1063873
2banks busy for read cycles: 40142611
2banks busy for write cycles: 345979
3banks busy for read cycles: 19417249
3banks busy for write cycles: 138122
4banks busy for read cycles: 6086828
4banks busy for write cycles: 59408
5banks busy for read cycles: 2172812
5banks busy for write cycles: 25454
6banks busy for read cycles: 1112867
6banks busy for write cycles: 12542
7banks busy for read cycles: 524446
7banks busy for write cycles: 3600
8banks busy for read cycles: 138028
8banks busy for write cycles: 1253

CPU 0 Branch Prediction Accuracy: 99.1302% MPKI: 3.1024 Average ROB Occupancy at Mispredict: 96.6988
Branch types
NOT_BRANCH: 32166917 64.3338%
BRANCH_DIRECT_JUMP: 168848 0.337696%
BRANCH_INDIRECT: 0 0%
BRANCH_CONDITIONAL: 17497543 34.9951%
BRANCH_DIRECT_CALL: 83355 0.16671%
BRANCH_INDIRECT_CALL: 0 0%
BRANCH_RETURN: 83355 0.16671%
BRANCH_OTHER: 0 0%

DRAM PAGES: 1048576
Allocated PAGES: 48887
