
*** ChampSim Multicore Out-of-Order Simulator ***

Warmup Instructions: 50000000
Simulation Instructions: 50000000
Number of CPUs: 1
LLC sets: 2048
LLC ways: 16
Off-chip DRAM Size: 4096 MB Channels: 1 Width: 64-bit Data Rate: 6400 MT/s
CPU 0 runs traces/SPEC-CPU2017/602.gcc_s-2226B.champsimtrace.xz
.xz
CPU 0 Bimodal branch predictor
BTB has LRU replacement policy
ITLB has LRU replacement policy
DTLB has LRU replacement policy
STLB has LRU replacement policy
L1I has LRU replacement policy
L1D has LRU replacement policy
L2C has LRU replacement policy
LLC has LRU replacement policy
Heartbeat CPU 0 instructions: 10000001 cycles: 3758181 heartbeat IPC: 2.66086 cumulative IPC: 2.66086 (Simulation time: 0 hr 4 min 31 sec) 
Heartbeat CPU 0 instructions: 20000000 cycles: 7517226 heartbeat IPC: 2.66025 cumulative IPC: 2.66056 (Simulation time: 0 hr 9 min 6 sec) 
Heartbeat CPU 0 instructions: 30000001 cycles: 11271661 heartbeat IPC: 2.66352 cumulative IPC: 2.66154 (Simulation time: 0 hr 13 min 41 sec) 
Heartbeat CPU 0 instructions: 40000000 cycles: 15025481 heartbeat IPC: 2.66395 cumulative IPC: 2.66214 (Simulation time: 0 hr 18 min 14 sec) 
Heartbeat CPU 0 instructions: 50000000 cycles: 18781203 heartbeat IPC: 2.6626 cumulative IPC: 2.66224 (Simulation time: 0 hr 22 min 43 sec) 

Warmup complete CPU 0 instructions: 50000004 cycles: 18781204 (Simulation time: 0 hr 22 min 43 sec) 

Heartbeat CPU 0 instructions: 60000000 cycles: 45052651 heartbeat IPC: 0.380641 cumulative IPC: 0.380641 (Simulation time: 0 hr 23 min 44 sec) 
Heartbeat CPU 0 instructions: 70000000 cycles: 70998527 heartbeat IPC: 0.385418 cumulative IPC: 0.383015 (Simulation time: 0 hr 24 min 45 sec) 
Heartbeat CPU 0 instructions: 80000000 cycles: 97110501 heartbeat IPC: 0.382966 cumulative IPC: 0.382998 (Simulation time: 0 hr 25 min 46 sec) 
Heartbeat CPU 0 instructions: 90000001 cycles: 123322771 heartbeat IPC: 0.381501 cumulative IPC: 0.382623 (Simulation time: 0 hr 26 min 47 sec) 
Heartbeat CPU 0 instructions: 100000000 cycles: 149469196 heartbeat IPC: 0.382461 cumulative IPC: 0.382591 (Simulation time: 0 hr 27 min 49 sec) 
Finished CPU 0 instructions: 50000001 cycles: 130688012 cumulative IPC: 0.382591 (Simulation time: 0 hr 27 min 49 sec) 

ChampSim completed all CPUs

Region of Interest Statistics

CPU 0 cumulative IPC: 0.382591 instructions: 50000001 cycles: 130688012
ITLB TOTAL     ACCESS:   11165227  HIT:   11165227  MISS:          0  HIT %:        100  MISS %:          0   MPKI: 0
ITLB LOAD TRANSLATION ACCESS:   11165227  HIT:   11165227  MISS:          0  HIT %:        100  MISS %:          0   MPKI: 0
ITLB PREFETCH  REQUESTED:          0  ISSUED:          0  USEFUL:          0  USELESS:          0
ITLB USEFUL LOAD PREFETCHES:          0 PREFETCH ISSUED TO LOWER LEVEL:          0  ACCURACY: -nan
ITLB TIMELY PREFETCHES:          0 LATE PREFETCHES: 0 DROPPED PREFETCHES: 0
ITLB PREFETCHES SAME FILL-ORIGIN LEVEL: 0 DIFFERENT FILL-ORIGIN LEVEL: 0
ITLB AVERAGE MISS LATENCY: -nan cycles
ITLB RQ	ACCESS:   11338080	FORWARD:          0	MERGED:     172854	TO_CACHE:   11165226

DTLB TOTAL     ACCESS:    7716952  HIT:    7648464  MISS:      68488  HIT %:    99.1125  MISS %:   0.887501   MPKI: 1.36976
DTLB LOAD TRANSLATION ACCESS:    7716952  HIT:    7648464  MISS:      68488  HIT %:    99.1125  MISS %:   0.887501   MPKI: 1.36976
DTLB PREFETCH  REQUESTED:          0  ISSUED:          0  USEFUL:          0  USELESS:          0
DTLB USEFUL LOAD PREFETCHES:          0 PREFETCH ISSUED TO LOWER LEVEL:          0  ACCURACY: -nan
DTLB TIMELY PREFETCHES:          0 LATE PREFETCHES: 0 DROPPED PREFETCHES: 0
DTLB PREFETCHES SAME FILL-ORIGIN LEVEL: 0 DIFFERENT FILL-ORIGIN LEVEL: 0
DTLB AVERAGE MISS LATENCY: 57.3505 cycles
DTLB RQ	ACCESS:    9081353	FORWARD:          0	MERGED:    1364149	TO_CACHE:    7717204

STLB TOTAL     ACCESS:    3424359  HIT:    3358339  MISS:      66020  HIT %:     98.072  MISS %:    1.92795   MPKI: 1.3204
STLB LOAD TRANSLATION ACCESS:      68488  HIT:      30504  MISS:      37984  HIT %:    44.5392  MISS %:    55.4608   MPKI: 0.75968
STLB TRANSLATION FROM L1D PREFETCHER ACCESS:    3355871  HIT:    3327835  MISS:      28036  HIT %:    99.1646  MISS %:   0.835431   MPKI: 0.56072
STLB PREFETCH  REQUESTED:          0  ISSUED:          0  USEFUL:      28036  USELESS:          0
STLB USEFUL LOAD PREFETCHES:      28036 PREFETCH ISSUED TO LOWER LEVEL:          0  ACCURACY: inf
STLB TIMELY PREFETCHES:      28036 LATE PREFETCHES: 4042 DROPPED PREFETCHES: 0
STLB PREFETCHES SAME FILL-ORIGIN LEVEL: 0 DIFFERENT FILL-ORIGIN LEVEL: 0
STLB AVERAGE MISS LATENCY: 63.3919 cycles
STLB RQ	ACCESS:    4891479	FORWARD:          0	MERGED:    1462915	TO_CACHE:    3428564

STLB Hit, L1D data hit: 0
STLB Hit, L2C data hit: 0
STLB Hit, LLC data hit: 0
STLB Hit, LLC data miss: 0
STLB STLB hints to L2: 0
L1D TOTAL     ACCESS:   13725777  HIT:    9938454  MISS:    3787323  HIT %:    72.4072  MISS %:    27.5928   MPKI: 75.7465
L1D LOAD      ACCESS:    8390125  HIT:    8201391  MISS:     188734  HIT %:    97.7505  MISS %:    2.24948   MPKI: 3.77468
L1D RFO       ACCESS:     654317  HIT:     653767  MISS:        550  HIT %:    99.9159  MISS %:  0.0840571   MPKI: 0.011
L1D PREFETCH  ACCESS:    4681335  HIT:    1083296  MISS:    3598039  HIT %:    23.1407  MISS %:    76.8593   MPKI: 71.9608
AGUS PREFETCH L1 MISS: 0
L1D PREFETCH  REQUESTED:    9675525  ISSUED:    9646799  USEFUL:    3329467  USELESS:     268605
L1D USEFUL LOAD PREFETCHES:    3329467 PREFETCH ISSUED TO LOWER LEVEL:    3722792  ACCURACY: 89.4347
L1D TIMELY PREFETCHES:    3329467 LATE PREFETCHES: 124324 DROPPED PREFETCHES: 0
L1D PREFETCHES SAME FILL-ORIGIN LEVEL: 3722792 DIFFERENT FILL-ORIGIN LEVEL: 0
L1D AVERAGE MISS LATENCY: 119.585 cycles
L1D RQ	ACCESS:   17950673	FORWARD:          0	MERGED:    9522132	TO_CACHE:    8427032
L1D WQ	ACCESS:     726205	FORWARD:       1509	MERGED:      71884	TO_CACHE:     654321
L1D PQ	ACCESS:    4823808	FORWARD:          0	MERGED:        817	TO_CACHE:    4822991

L1D UNIQUE REGIONS ACCESSED: 0
L1D REGIONS CONFLICTS: 0
L1D Cross Page Prefetch Requests: 74748
L1D Same Page Prefetch Requests: 10327188
L1D ROI Sum of L1D PQ occupancy: 66891373
L1D PREFETCHES PUSHED FROM L2C: 0
L1I TOTAL     ACCESS:   11338080  HIT:   11338080  MISS:          0  HIT %:        100  MISS %:          0   MPKI: 0
L1I LOAD      ACCESS:   11338080  HIT:   11338080  MISS:          0  HIT %:        100  MISS %:          0   MPKI: 0
L1I PREFETCH  REQUESTED:          0  ISSUED:          0  USEFUL:          0  USELESS:          0
L1I USEFUL LOAD PREFETCHES:          0 PREFETCH ISSUED TO LOWER LEVEL:          0  ACCURACY: -nan
L1I TIMELY PREFETCHES:          0 LATE PREFETCHES: 0 DROPPED PREFETCHES: 0
L1I PREFETCHES SAME FILL-ORIGIN LEVEL: 0 DIFFERENT FILL-ORIGIN LEVEL: 0
L1I AVERAGE MISS LATENCY: -nan cycles
L1I RQ	ACCESS:   16033650	FORWARD:          0	MERGED:    4695570	TO_CACHE:   11338080

BTB TOTAL     ACCESS:   11928195  HIT:   11928097  MISS:         98  HIT %:    99.9992  MISS %: 0.000821583   MPKI: 0.00196
BTB BRANCH_DIRECT_JUMP	ACCESS:     168848  HIT:     168822  MISS:         26
BTB BRANCH_INDIRECT	ACCESS:          0  HIT:          0  MISS:          0
BTB BRANCH_CONDITIONAL	ACCESS:   11592637  HIT:   11592588  MISS:         49
BTB BRANCH_DIRECT_CALL	ACCESS:      83355  HIT:      83345  MISS:         10
BTB BRANCH_INDIRECT_CALL	ACCESS:          0  HIT:          0  MISS:          0
BTB BRANCH_RETURN	ACCESS:      83355  HIT:      83342  MISS:         13
BTB BRANCH_OTHER ACCESS:          0  HIT:          0  MISS:          0

L2C TOTAL     ACCESS:    3860852  HIT:     196786  MISS:    3664066  HIT %:    5.09696  MISS %:     94.903   MPKI: 73.2813
L2C LOAD      ACCESS:      64390  HIT:      16255  MISS:      48135  HIT %:    25.2446  MISS %:    74.7554   MPKI: 0.9627
L2C DATA LOAD MPKI: 0.9627
L2C INSTRUCTION LOAD MPKI: 0
L2C RFO       ACCESS:        125  HIT:         75  MISS:         50  HIT %:         60  MISS %:         40   MPKI: 0.001
L2C PREFETCH  ACCESS:    3722789  HIT:     122546  MISS:    3600243  HIT %:    3.29178  MISS %:    96.7082   MPKI: 72.0049
AGUS PREFETCH L1 MISS: 0
L2C DATA PREFETCH MPKI: 72.0049
L2C INSTRUCTION PREFETCH MPKI: 0
L2C WRITEBACK ACCESS:       6012  HIT:       5849  MISS:        163  HIT %:    97.2888  MISS %:    2.71124   MPKI: 0.00326
L2C LOAD TRANSLATION ACCESS:      35366  HIT:      24038  MISS:      11328  HIT %:    67.9692  MISS %:    32.0308   MPKI: 0.22656
L2C TRANSLATION FROM L1D PREFETCHER ACCESS:      32170  HIT:      28023  MISS:       4147  HIT %:    87.1091  MISS %:    12.8909   MPKI: 0.08294
L2C PREFETCH  REQUESTED:          0  ISSUED:          0  USEFUL:       8462  USELESS:    3595838
L2C USEFUL LOAD PREFETCHES:       8462 PREFETCH ISSUED TO LOWER LEVEL:    3600246  ACCURACY: 0.235039
L2C TIMELY PREFETCHES:       8462 LATE PREFETCHES: 0 DROPPED PREFETCHES: 0
L2C PREFETCHES SAME FILL-ORIGIN LEVEL: 0 DIFFERENT FILL-ORIGIN LEVEL: 0
L2C AVERAGE MISS LATENCY: 108.69 cycles
L2C RQ	ACCESS:     132070	FORWARD:          0	MERGED:          0	TO_CACHE:     132051
L2C WQ	ACCESS:       6012	FORWARD:         19	MERGED:          0	TO_CACHE:       6012
L2C PQ	ACCESS:    3722792	FORWARD:          0	MERGED:          0	TO_CACHE:    3722792

L2C Instructions Evicting Data 0
L2C Translations Evicting Data 15429
L2C Data Evicting Data 3633010
L2C Instructions Evicting Instructions 0
L2C Translations Evicting Instructions 0
L2C Data Evicting Instructions 0
L2C Instructions Evicting Translations 0
L2C Translations Evicting Translations 46
L2C Data Evicting Translations 15418
L2C Dense regions hint from L2: 0
PSCL5 TOTAL     ACCESS:      66020  HIT:      66020  MISS:          0  HIT %:        100  MISS %:          0   MPKI: 0
PSCL5 LOAD TRANSLATION ACCESS:      33942  HIT:      33942  MISS:          0  HIT %:        100  MISS %:          0   MPKI: 0
PSCL5 TRANSLATION FROM L1D PREFETCHER ACCESS:      32078  HIT:      32078  MISS:          0  HIT %:        100  MISS %:          0   MPKI: 0
PSCL5 PREFETCH  REQUESTED:          0  ISSUED:          0  USEFUL:          0  USELESS:          0
PSCL5 USEFUL LOAD PREFETCHES:          0 PREFETCH ISSUED TO LOWER LEVEL:          0  ACCURACY: -nan
PSCL5 TIMELY PREFETCHES:          0 LATE PREFETCHES: 0 DROPPED PREFETCHES: 0
PSCL5 PREFETCHES SAME FILL-ORIGIN LEVEL: 0 DIFFERENT FILL-ORIGIN LEVEL: 0

PSCL4 TOTAL     ACCESS:      66020  HIT:      66020  MISS:          0  HIT %:        100  MISS %:          0   MPKI: 0
PSCL4 LOAD TRANSLATION ACCESS:      33942  HIT:      33942  MISS:          0  HIT %:        100  MISS %:          0   MPKI: 0
PSCL4 TRANSLATION FROM L1D PREFETCHER ACCESS:      32078  HIT:      32078  MISS:          0  HIT %:        100  MISS %:          0   MPKI: 0
PSCL4 PREFETCH  REQUESTED:          0  ISSUED:          0  USEFUL:          0  USELESS:          0
PSCL4 USEFUL LOAD PREFETCHES:          0 PREFETCH ISSUED TO LOWER LEVEL:          0  ACCURACY: -nan
PSCL4 TIMELY PREFETCHES:          0 LATE PREFETCHES: 0 DROPPED PREFETCHES: 0
PSCL4 PREFETCHES SAME FILL-ORIGIN LEVEL: 0 DIFFERENT FILL-ORIGIN LEVEL: 0

PSCL3 TOTAL     ACCESS:      66018  HIT:      66011  MISS:          7  HIT %:    99.9894  MISS %:  0.0106032   MPKI: 0.00014
PSCL3 LOAD TRANSLATION ACCESS:      33941  HIT:      33934  MISS:          7  HIT %:    99.9794  MISS %:   0.020624   MPKI: 0.00014
PSCL3 TRANSLATION FROM L1D PREFETCHER ACCESS:      32077  HIT:      32077  MISS:          0  HIT %:        100  MISS %:          0   MPKI: 0
PSCL3 PREFETCH  REQUESTED:          0  ISSUED:          0  USEFUL:          0  USELESS:          0
PSCL3 USEFUL LOAD PREFETCHES:          0 PREFETCH ISSUED TO LOWER LEVEL:          0  ACCURACY: -nan
PSCL3 TIMELY PREFETCHES:          0 LATE PREFETCHES: 0 DROPPED PREFETCHES: 0
PSCL3 PREFETCHES SAME FILL-ORIGIN LEVEL: 0 DIFFERENT FILL-ORIGIN LEVEL: 0

PSCL2 TOTAL     ACCESS:      66020  HIT:      64510  MISS:       1510  HIT %:    97.7128  MISS %:    2.28719   MPKI: 0.0302
PSCL2 LOAD TRANSLATION ACCESS:      34033  HIT:      32523  MISS:       1510  HIT %:    95.5631  MISS %:    4.43687   MPKI: 0.0302
PSCL2 TRANSLATION FROM L1D PREFETCHER ACCESS:      31987  HIT:      31987  MISS:          0  HIT %:        100  MISS %:          0   MPKI: 0
PSCL2 PREFETCH  REQUESTED:          0  ISSUED:          0  USEFUL:          0  USELESS:          0
PSCL2 USEFUL LOAD PREFETCHES:          0 PREFETCH ISSUED TO LOWER LEVEL:          0  ACCURACY: -nan
PSCL2 TIMELY PREFETCHES:          0 LATE PREFETCHES: 0 DROPPED PREFETCHES: 0
PSCL2 PREFETCHES SAME FILL-ORIGIN LEVEL: 0 DIFFERENT FILL-ORIGIN LEVEL: 0

LLC TOTAL     ACCESS:    3669671  HIT:      25112  MISS:    3644559  HIT %:   0.684312  MISS %:    99.3157   MPKI: 72.8912
LLC LOAD      ACCESS:      48135  HIT:       1289  MISS:      46846  HIT %:    2.67789  MISS %:    97.3221   MPKI: 0.93692
LLC RFO       ACCESS:         50  HIT:          0  MISS:         50  HIT %:          0  MISS %:        100   MPKI: 0.001
LLC PREFETCH  ACCESS:    3600243  HIT:      17381  MISS:    3582862  HIT %:   0.482773  MISS %:    99.5172   MPKI: 71.6572
AGUS PREFETCH L1 MISS: 0
LLC WRITEBACK ACCESS:       5768  HIT:       5684  MISS:         84  HIT %:    98.5437  MISS %:    1.45631   MPKI: 0.00168
LLC LOAD TRANSLATION ACCESS:      11328  HIT:        676  MISS:      10652  HIT %:    5.96751  MISS %:    94.0325   MPKI: 0.21304
LLC TRANSLATION FROM L1D PREFETCHER ACCESS:       4147  HIT:         82  MISS:       4065  HIT %:    1.97733  MISS %:    98.0227   MPKI: 0.0813
LLC PREFETCH  REQUESTED:          0  ISSUED:          0  USEFUL:        150  USELESS:    3586357
LLC USEFUL LOAD PREFETCHES:        150 PREFETCH ISSUED TO LOWER LEVEL:    3582864  ACCURACY: 0.00418659
LLC TIMELY PREFETCHES:        150 LATE PREFETCHES: 0 DROPPED PREFETCHES: 0
LLC PREFETCHES SAME FILL-ORIGIN LEVEL: 0 DIFFERENT FILL-ORIGIN LEVEL: 0
LLC AVERAGE MISS LATENCY: 79.1126 cycles
LLC RQ	ACCESS:      63660	FORWARD:          0	MERGED:          0	TO_CACHE:      63660
LLC WQ	ACCESS:       5768	FORWARD:          0	MERGED:          0	TO_CACHE:       5768
LLC PQ	ACCESS:    3600246	FORWARD:          0	MERGED:          0	TO_CACHE:    3600246

LLC Dense regions hint to LLC: 0

RAW hits: 3929
Loads Generated: 17954602
Loads sent to L1D: 17950673
Stores Generated: 726205
Stores sent to L1D: 726205
Major fault: 0 Minor fault: 48887
Allocated PAGES: 48887

stream: 
stream:times selected: 10984510
stream:pref_filled: 6707417
stream:pref_useful: 6305739
stream:pref_late: 97163
stream:misses: 22100
stream:misses_by_poll: 0

CS: 
CS:times selected: 5855486
CS:pref_filled: 167991
CS:pref_useful: 149355
CS:pref_late: 7597
CS:misses: 193453
CS:misses_by_poll: 345

CPLX: 
CPLX:times selected: 5124464
CPLX:pref_filled: 397768
CPLX:pref_useful: 218145
CPLX:pref_late: 1532
CPLX:misses: 108705
CPLX:misses_by_poll: 901

ISB: 
ISB:times selected:99275
ISB:pref_filled: 18036
ISB:pref_useful: 17903
ISB:pref_late: 45177
ISB:misses: 62727
ISB:misses_by_poll: 28

NL_L1: 
NL:times selected: 3246
NL:pref_filled: 1820
NL:pref_useful: 1811
NL:pref_late: 45
NL:misses: 132
NL:misses_by_poll: 0

total selections: 22066981
total_filled: 3598039
total_useful: 3329467
total_late: 156975
total_polluted: 1274
total_misses_after_warmup: 225640
conflicts: 63062

test: 2625303

DRAM Statistics
 CHANNEL 0
 RQ ROW_BUFFER_HIT:    3353799  ROW_BUFFER_MISS:     290676
 DBUS_CONGESTED:       1503
 WQ ROW_BUFFER_HIT:       1105  ROW_BUFFER_MISS:       4587  FULL:          0

 AVG_CONGESTED_CYCLE: 4
 All warmup complete: 2
Channel 0 Bank busy for read cycles: 0
Channel 0 Bank busy for write cycles: 0
Channel 0
Rank 0
0banks busy for read cycles: 28290435
0banks busy for write cycles: 2830
1banks busy for read cycles: 29087226
1banks busy for write cycles: 830950
2banks busy for read cycles: 52999249
2banks busy for write cycles: 357190
3banks busy for read cycles: 11091651
3banks busy for write cycles: 158949
4banks busy for read cycles: 2577675
4banks busy for write cycles: 69734
5banks busy for read cycles: 1145832
5banks busy for write cycles: 35797
6banks busy for read cycles: 1390842
6banks busy for write cycles: 13999
7banks busy for read cycles: 2451626
7banks busy for write cycles: 7840
8banks busy for read cycles: 174242
8banks busy for write cycles: 1946

CPU 0 Branch Prediction Accuracy: 99.1302% MPKI: 3.1024 Average ROB Occupancy at Mispredict: 96.8685
Branch types
NOT_BRANCH: 32166917 64.3338%
BRANCH_DIRECT_JUMP: 168848 0.337696%
BRANCH_INDIRECT: 0 0%
BRANCH_CONDITIONAL: 17497543 34.9951%
BRANCH_DIRECT_CALL: 83355 0.16671%
BRANCH_INDIRECT_CALL: 0 0%
BRANCH_RETURN: 83355 0.16671%
BRANCH_OTHER: 0 0%

DRAM PAGES: 1048576
Allocated PAGES: 48887
