
*** ChampSim Multicore Out-of-Order Simulator ***

Warmup Instructions: 50000000
Simulation Instructions: 50000000
Number of CPUs: 1
LLC sets: 2048
LLC ways: 16
Off-chip DRAM Size: 4096 MB Channels: 1 Width: 64-bit Data Rate: 6400 MT/s
CPU 0 runs traces/SPEC-CPU2017/623.xalancbmk_s-10B.champsimtrace.xz
.xz
CPU 0 Bimodal branch predictor
BTB has LRU replacement policy
ITLB has LRU replacement policy
DTLB has LRU replacement policy
STLB has LRU replacement policy
L1I has LRU replacement policy
L1D has LRU replacement policy
L2C has LRU replacement policy
LLC has LRU replacement policy
Heartbeat CPU 0 instructions: 10000001 cycles: 3175723 heartbeat IPC: 3.14889 cumulative IPC: 3.14889 (Simulation time: 0 hr 3 min 37 sec) 
Heartbeat CPU 0 instructions: 20000000 cycles: 6327756 heartbeat IPC: 3.17256 cumulative IPC: 3.16068 (Simulation time: 0 hr 7 min 14 sec) 
Heartbeat CPU 0 instructions: 30000001 cycles: 9494587 heartbeat IPC: 3.15773 cumulative IPC: 3.1597 (Simulation time: 0 hr 10 min 50 sec) 
Heartbeat CPU 0 instructions: 40000000 cycles: 12675101 heartbeat IPC: 3.14415 cumulative IPC: 3.15579 (Simulation time: 0 hr 14 min 24 sec) 
Heartbeat CPU 0 instructions: 50000000 cycles: 15873135 heartbeat IPC: 3.12692 cumulative IPC: 3.14998 (Simulation time: 0 hr 18 min 6 sec) 

Warmup complete CPU 0 instructions: 50000004 cycles: 15873136 (Simulation time: 0 hr 18 min 6 sec) 

Heartbeat CPU 0 instructions: 60000000 cycles: 48077438 heartbeat IPC: 0.310518 cumulative IPC: 0.310517 (Simulation time: 0 hr 19 min 3 sec) 
Heartbeat CPU 0 instructions: 70000000 cycles: 81038999 heartbeat IPC: 0.303384 cumulative IPC: 0.306909 (Simulation time: 0 hr 20 min 1 sec) 
Heartbeat CPU 0 instructions: 80000000 cycles: 114123251 heartbeat IPC: 0.302259 cumulative IPC: 0.305343 (Simulation time: 0 hr 20 min 59 sec) 
Heartbeat CPU 0 instructions: 90000000 cycles: 145573350 heartbeat IPC: 0.317964 cumulative IPC: 0.308403 (Simulation time: 0 hr 21 min 56 sec) 
Heartbeat CPU 0 instructions: 100000000 cycles: 178722784 heartbeat IPC: 0.301664 cumulative IPC: 0.307032 (Simulation time: 0 hr 22 min 55 sec) 
Finished CPU 0 instructions: 50000003 cycles: 162849682 cumulative IPC: 0.307032 (Simulation time: 0 hr 22 min 55 sec) 

ChampSim completed all CPUs

Region of Interest Statistics

CPU 0 cumulative IPC: 0.307032 instructions: 50000003 cycles: 162849682
ITLB TOTAL     ACCESS:    7900707  HIT:    7866798  MISS:      33909  HIT %:    99.5708  MISS %:   0.429189   MPKI: 0.67818
ITLB LOAD TRANSLATION ACCESS:    7900707  HIT:    7866798  MISS:      33909  HIT %:    99.5708  MISS %:   0.429189   MPKI: 0.67818
ITLB PREFETCH  REQUESTED:          0  ISSUED:          0  USEFUL:          0  USELESS:          0
ITLB USEFUL LOAD PREFETCHES:          0 PREFETCH ISSUED TO LOWER LEVEL:          0  ACCURACY: -nan
ITLB TIMELY PREFETCHES:          0 LATE PREFETCHES: 0 DROPPED PREFETCHES: 0
ITLB PREFETCHES SAME FILL-ORIGIN LEVEL: 0 DIFFERENT FILL-ORIGIN LEVEL: 0
ITLB AVERAGE MISS LATENCY: 18.2207 cycles
ITLB RQ	ACCESS:    9060823	FORWARD:          0	MERGED:    1151022	TO_CACHE:    7909801

DTLB TOTAL     ACCESS:   10322733  HIT:    9985413  MISS:     337320  HIT %:    96.7323  MISS %:    3.26774   MPKI: 6.7464
DTLB LOAD TRANSLATION ACCESS:   10322733  HIT:    9985413  MISS:     337320  HIT %:    96.7323  MISS %:    3.26774   MPKI: 6.7464
DTLB PREFETCH  REQUESTED:          0  ISSUED:          0  USEFUL:          0  USELESS:          0
DTLB USEFUL LOAD PREFETCHES:          0 PREFETCH ISSUED TO LOWER LEVEL:          0  ACCURACY: -nan
DTLB TIMELY PREFETCHES:          0 LATE PREFETCHES: 0 DROPPED PREFETCHES: 0
DTLB PREFETCHES SAME FILL-ORIGIN LEVEL: 0 DIFFERENT FILL-ORIGIN LEVEL: 0
DTLB AVERAGE MISS LATENCY: 17.5275 cycles
DTLB RQ	ACCESS:   11396233	FORWARD:          0	MERGED:    1045126	TO_CACHE:   10351107

STLB TOTAL     ACCESS:    2460664  HIT:    2202050  MISS:     258614  HIT %:    89.4901  MISS %:    10.5099   MPKI: 5.17228
STLB LOAD TRANSLATION ACCESS:     371229  HIT:     293798  MISS:      77431  HIT %:     79.142  MISS %:     20.858   MPKI: 1.54862
STLB TRANSLATION FROM L1D PREFETCHER ACCESS:    2089435  HIT:    1908252  MISS:     181183  HIT %:    91.3286  MISS %:    8.67139   MPKI: 3.62366
STLB PREFETCH  REQUESTED:          0  ISSUED:          0  USEFUL:     179547  USELESS:       1640
STLB USEFUL LOAD PREFETCHES:     179547 PREFETCH ISSUED TO LOWER LEVEL:          0  ACCURACY: inf
STLB TIMELY PREFETCHES:     179547 LATE PREFETCHES: 254 DROPPED PREFETCHES: 0
STLB PREFETCHES SAME FILL-ORIGIN LEVEL: 0 DIFFERENT FILL-ORIGIN LEVEL: 0
STLB AVERAGE MISS LATENCY: 88.977 cycles
STLB RQ	ACCESS:    3024300	FORWARD:          0	MERGED:     559687	TO_CACHE:    2464613

STLB Hit, L1D data hit: 0
STLB Hit, L2C data hit: 0
STLB Hit, LLC data hit: 0
STLB Hit, LLC data miss: 0
STLB STLB hints to L2: 0
L1D TOTAL     ACCESS:   13733963  HIT:   11614474  MISS:    2119489  HIT %:    84.5675  MISS %:    15.4325   MPKI: 42.3898
L1D LOAD      ACCESS:    8971816  HIT:    8189245  MISS:     782571  HIT %:    91.2775  MISS %:    8.72255   MPKI: 15.6514
L1D RFO       ACCESS:    2334146  HIT:    2312598  MISS:      21548  HIT %:    99.0768  MISS %:   0.923164   MPKI: 0.43096
L1D PREFETCH  ACCESS:    2428001  HIT:    1112631  MISS:    1315370  HIT %:     45.825  MISS %:     54.175   MPKI: 26.3074
AGUS PREFETCH L1 MISS: 0
L1D PREFETCH  REQUESTED:    5377461  ISSUED:    5330107  USEFUL:     569033  USELESS:     746339
L1D USEFUL LOAD PREFETCHES:     569033 PREFETCH ISSUED TO LOWER LEVEL:    1367706  ACCURACY: 41.6049
L1D TIMELY PREFETCHES:     569033 LATE PREFETCHES: 51833 DROPPED PREFETCHES: 0
L1D PREFETCHES SAME FILL-ORIGIN LEVEL: 1367706 DIFFERENT FILL-ORIGIN LEVEL: 0
L1D AVERAGE MISS LATENCY: 152.302 cycles
L1D RQ	ACCESS:   14679256	FORWARD:          0	MERGED:    5617745	TO_CACHE:    9001825
L1D WQ	ACCESS:    2425925	FORWARD:      59692	MERGED:      31517	TO_CACHE:    2394408
L1D PQ	ACCESS:    2677036	FORWARD:          0	MERGED:      23959	TO_CACHE:    2653071

L1D UNIQUE REGIONS ACCESSED: 0
L1D REGIONS CONFLICTS: 0
L1D Cross Page Prefetch Requests: 2156711
L1D Same Page Prefetch Requests: 3254802
L1D ROI Sum of L1D PQ occupancy: 91225457
L1D PREFETCHES PUSHED FROM L2C: 0
L1I TOTAL     ACCESS:    9009292  HIT:    8833262  MISS:     176030  HIT %:    98.0461  MISS %:    1.95387   MPKI: 3.5206
L1I LOAD      ACCESS:    9009292  HIT:    8833262  MISS:     176030  HIT %:    98.0461  MISS %:    1.95387   MPKI: 3.5206
L1I PREFETCH  REQUESTED:          0  ISSUED:          0  USEFUL:          0  USELESS:          0
L1I USEFUL LOAD PREFETCHES:          0 PREFETCH ISSUED TO LOWER LEVEL:          0  ACCURACY: -nan
L1I TIMELY PREFETCHES:          0 LATE PREFETCHES: 0 DROPPED PREFETCHES: 0
L1I PREFETCHES SAME FILL-ORIGIN LEVEL: 0 DIFFERENT FILL-ORIGIN LEVEL: 0
L1I AVERAGE MISS LATENCY: 39.9127 cycles
L1I RQ	ACCESS:   15173194	FORWARD:          0	MERGED:    6112371	TO_CACHE:    9060823

BTB TOTAL     ACCESS:    8240388  HIT:    8162326  MISS:      78062  HIT %:    99.0527  MISS %:    0.94731   MPKI: 1.56124
BTB BRANCH_DIRECT_JUMP	ACCESS:     125745  HIT:     125105  MISS:        640
BTB BRANCH_INDIRECT	ACCESS:      22046  HIT:       8847  MISS:      13199
BTB BRANCH_CONDITIONAL	ACCESS:    6916737  HIT:    6913889  MISS:       2848
BTB BRANCH_DIRECT_CALL	ACCESS:     323606  HIT:     322531  MISS:       1075
BTB BRANCH_INDIRECT_CALL	ACCESS:     264324  HIT:     261288  MISS:       3036
BTB BRANCH_RETURN	ACCESS:     587930  HIT:     530666  MISS:      57264
BTB BRANCH_OTHER ACCESS:          0  HIT:          0  MISS:          0

L2C TOTAL     ACCESS:    2599521  HIT:     606676  MISS:    1992845  HIT %:     23.338  MISS %:     76.662   MPKI: 39.8569
L2C LOAD      ACCESS:     906766  HIT:     220309  MISS:     686457  HIT %:    24.2961  MISS %:    75.7039   MPKI: 13.7291
L2C DATA LOAD MPKI: 12.9304
L2C INSTRUCTION LOAD MPKI: 0.79872
L2C RFO       ACCESS:      21038  HIT:       8279  MISS:      12759  HIT %:    39.3526  MISS %:    60.6474   MPKI: 0.25518
L2C PREFETCH  ACCESS:    1367704  HIT:     138172  MISS:    1229532  HIT %:    10.1025  MISS %:    89.8975   MPKI: 24.5906
AGUS PREFETCH L1 MISS: 0
L2C DATA PREFETCH MPKI: 24.5906
L2C INSTRUCTION PREFETCH MPKI: 0
L2C WRITEBACK ACCESS:      44160  HIT:      43944  MISS:        216  HIT %:    99.5109  MISS %:    0.48913   MPKI: 0.00432
L2C LOAD TRANSLATION ACCESS:      77468  HIT:      72546  MISS:       4922  HIT %:    93.6464  MISS %:    6.35359   MPKI: 0.09844
L2C TRANSLATION FROM L1D PREFETCHER ACCESS:     182385  HIT:     123426  MISS:      58959  HIT %:    67.6733  MISS %:    32.3267   MPKI: 1.17918
L2C PREFETCH  REQUESTED:          0  ISSUED:          0  USEFUL:      77511  USELESS:    1211021
L2C USEFUL LOAD PREFETCHES:      77511 PREFETCH ISSUED TO LOWER LEVEL:    1229532  ACCURACY: 6.30411
L2C TIMELY PREFETCHES:      77511 LATE PREFETCHES: 0 DROPPED PREFETCHES: 0
L2C PREFETCHES SAME FILL-ORIGIN LEVEL: 0 DIFFERENT FILL-ORIGIN LEVEL: 0
L2C AVERAGE MISS LATENCY: 154.761 cycles
L2C RQ	ACCESS:    1187666	FORWARD:          0	MERGED:          0	TO_CACHE:    1187657
L2C WQ	ACCESS:      44160	FORWARD:         11	MERGED:          0	TO_CACHE:      44160
L2C PQ	ACCESS:    1367706	FORWARD:          0	MERGED:          0	TO_CACHE:    1367704

L2C Instructions Evicting Data 37787
L2C Translations Evicting Data 61093
L2C Data Evicting Data 1789903
L2C Instructions Evicting Instructions 1016
L2C Translations Evicting Instructions 974
L2C Data Evicting Instructions 37966
L2C Instructions Evicting Translations 1133
L2C Translations Evicting Translations 1814
L2C Data Evicting Translations 60943
L2C Dense regions hint from L2: 0
PSCL5 TOTAL     ACCESS:     258614  HIT:     258614  MISS:          0  HIT %:        100  MISS %:          0   MPKI: 0
PSCL5 LOAD TRANSLATION ACCESS:      77177  HIT:      77177  MISS:          0  HIT %:        100  MISS %:          0   MPKI: 0
PSCL5 TRANSLATION FROM L1D PREFETCHER ACCESS:     181437  HIT:     181437  MISS:          0  HIT %:        100  MISS %:          0   MPKI: 0
PSCL5 PREFETCH  REQUESTED:          0  ISSUED:          0  USEFUL:          0  USELESS:          0
PSCL5 USEFUL LOAD PREFETCHES:          0 PREFETCH ISSUED TO LOWER LEVEL:          0  ACCURACY: -nan
PSCL5 TIMELY PREFETCHES:          0 LATE PREFETCHES: 0 DROPPED PREFETCHES: 0
PSCL5 PREFETCHES SAME FILL-ORIGIN LEVEL: 0 DIFFERENT FILL-ORIGIN LEVEL: 0

PSCL4 TOTAL     ACCESS:     258614  HIT:     258614  MISS:          0  HIT %:        100  MISS %:          0   MPKI: 0
PSCL4 LOAD TRANSLATION ACCESS:      77177  HIT:      77177  MISS:          0  HIT %:        100  MISS %:          0   MPKI: 0
PSCL4 TRANSLATION FROM L1D PREFETCHER ACCESS:     181437  HIT:     181437  MISS:          0  HIT %:        100  MISS %:          0   MPKI: 0
PSCL4 PREFETCH  REQUESTED:          0  ISSUED:          0  USEFUL:          0  USELESS:          0
PSCL4 USEFUL LOAD PREFETCHES:          0 PREFETCH ISSUED TO LOWER LEVEL:          0  ACCURACY: -nan
PSCL4 TIMELY PREFETCHES:          0 LATE PREFETCHES: 0 DROPPED PREFETCHES: 0
PSCL4 PREFETCHES SAME FILL-ORIGIN LEVEL: 0 DIFFERENT FILL-ORIGIN LEVEL: 0

PSCL3 TOTAL     ACCESS:     258614  HIT:     258614  MISS:          0  HIT %:        100  MISS %:          0   MPKI: 0
PSCL3 LOAD TRANSLATION ACCESS:      77177  HIT:      77177  MISS:          0  HIT %:        100  MISS %:          0   MPKI: 0
PSCL3 TRANSLATION FROM L1D PREFETCHER ACCESS:     181437  HIT:     181437  MISS:          0  HIT %:        100  MISS %:          0   MPKI: 0
PSCL3 PREFETCH  REQUESTED:          0  ISSUED:          0  USEFUL:          0  USELESS:          0
PSCL3 USEFUL LOAD PREFETCHES:          0 PREFETCH ISSUED TO LOWER LEVEL:          0  ACCURACY: -nan
PSCL3 TIMELY PREFETCHES:          0 LATE PREFETCHES: 0 DROPPED PREFETCHES: 0
PSCL3 PREFETCHES SAME FILL-ORIGIN LEVEL: 0 DIFFERENT FILL-ORIGIN LEVEL: 0

PSCL2 TOTAL     ACCESS:     258614  HIT:     257375  MISS:       1239  HIT %:    99.5209  MISS %:   0.479092   MPKI: 0.02478
PSCL2 LOAD TRANSLATION ACCESS:      78125  HIT:      76886  MISS:       1239  HIT %:    98.4141  MISS %:    1.58592   MPKI: 0.02478
PSCL2 TRANSLATION FROM L1D PREFETCHER ACCESS:     180489  HIT:     180489  MISS:          0  HIT %:        100  MISS %:          0   MPKI: 0
PSCL2 PREFETCH  REQUESTED:          0  ISSUED:          0  USEFUL:          0  USELESS:          0
PSCL2 USEFUL LOAD PREFETCHES:          0 PREFETCH ISSUED TO LOWER LEVEL:          0  ACCURACY: -nan
PSCL2 TIMELY PREFETCHES:          0 LATE PREFETCHES: 0 DROPPED PREFETCHES: 0
PSCL2 PREFETCHES SAME FILL-ORIGIN LEVEL: 0 DIFFERENT FILL-ORIGIN LEVEL: 0

LLC TOTAL     ACCESS:    2015954  HIT:     157489  MISS:    1858465  HIT %:    7.81213  MISS %:    92.1879   MPKI: 37.1693
LLC LOAD      ACCESS:     686457  HIT:      54393  MISS:     632064  HIT %:    7.92373  MISS %:    92.0763   MPKI: 12.6413
LLC RFO       ACCESS:      12759  HIT:       1696  MISS:      11063  HIT %:    13.2926  MISS %:    86.7074   MPKI: 0.22126
LLC PREFETCH  ACCESS:    1229532  HIT:      73698  MISS:    1155834  HIT %:    5.99399  MISS %:     94.006   MPKI: 23.1167
AGUS PREFETCH L1 MISS: 0
LLC WRITEBACK ACCESS:      23325  HIT:      23200  MISS:        125  HIT %:    99.4641  MISS %:   0.535906   MPKI: 0.0025
LLC LOAD TRANSLATION ACCESS:       4922  HIT:       1108  MISS:       3814  HIT %:    22.5112  MISS %:    77.4888   MPKI: 0.07628
LLC TRANSLATION FROM L1D PREFETCHER ACCESS:      58959  HIT:       3394  MISS:      55565  HIT %:    5.75654  MISS %:    94.2435   MPKI: 1.1113
LLC PREFETCH  REQUESTED:          0  ISSUED:          0  USEFUL:      15772  USELESS:    1196267
LLC USEFUL LOAD PREFETCHES:      15772 PREFETCH ISSUED TO LOWER LEVEL:    1155834  ACCURACY: 1.36456
LLC TIMELY PREFETCHES:      15772 LATE PREFETCHES: 0 DROPPED PREFETCHES: 0
LLC PREFETCHES SAME FILL-ORIGIN LEVEL: 0 DIFFERENT FILL-ORIGIN LEVEL: 0
LLC AVERAGE MISS LATENCY: 133.784 cycles
LLC RQ	ACCESS:     763097	FORWARD:          0	MERGED:          0	TO_CACHE:     763097
LLC WQ	ACCESS:      23325	FORWARD:          0	MERGED:          0	TO_CACHE:      23325
LLC PQ	ACCESS:    1229532	FORWARD:          0	MERGED:          0	TO_CACHE:    1229532

LLC Dense regions hint to LLC: 0

RAW hits: 62805
Loads Generated: 14742061
Loads sent to L1D: 14679256
Stores Generated: 2425922
Stores sent to L1D: 2425925
Major fault: 0 Minor fault: 11043
Allocated PAGES: 11043

stream: 
stream:times selected: 3431078
stream:pref_filled: 1373368
stream:pref_useful: 183481
stream:pref_late: 64697
stream:misses: 12618
stream:misses_by_poll: 0

CS: 
CS:times selected: 109625
CS:pref_filled: 94342
CS:pref_useful: 65154
CS:pref_late: 946
CS:misses: 1337
CS:misses_by_poll: 118

CPLX: 
CPLX:times selected: 3289743
CPLX:pref_filled: 124115
CPLX:pref_useful: 15892
CPLX:pref_late: 610
CPLX:misses: 34090
CPLX:misses_by_poll: 85

ISB: 
ISB:times selected:3366627
ISB:pref_filled: 1101841
ISB:pref_useful: 948602
ISB:pref_late: 17398
ISB:misses: 1417050
ISB:misses_by_poll: 7289

NL_L1: 
NL:times selected: 8070
NL:pref_filled: 3044
NL:pref_useful: 453
NL:pref_late: 282
NL:misses: 4744
NL:misses_by_poll: 0

total selections: 10205143
total_filled: 1315370
total_useful: 569033
total_late: 85807
total_polluted: 7492
total_misses_after_warmup: 812579
conflicts: 1936318

test: 2214321

DRAM Statistics
 CHANNEL 0
 RQ ROW_BUFFER_HIT:    1040528  ROW_BUFFER_MISS:     817812
 DBUS_CONGESTED:        320
 WQ ROW_BUFFER_HIT:       1620  ROW_BUFFER_MISS:      16762  FULL:          0

 AVG_CONGESTED_CYCLE: 4
 All warmup complete: 2
Channel 0 Bank busy for read cycles: 0
Channel 0 Bank busy for write cycles: 0
Channel 0
Rank 0
0banks busy for read cycles: 81461481
0banks busy for write cycles: 13285
1banks busy for read cycles: 31420032
1banks busy for write cycles: 2390949
2banks busy for read cycles: 20392766
2banks busy for write cycles: 526462
3banks busy for read cycles: 12524445
3banks busy for write cycles: 139547
4banks busy for read cycles: 7498066
4banks busy for write cycles: 37137
5banks busy for read cycles: 4206253
5banks busy for write cycles: 10990
6banks busy for read cycles: 1743306
6banks busy for write cycles: 1254
7banks busy for read cycles: 424667
7banks busy for write cycles: 591
8banks busy for read cycles: 58452
8banks busy for write cycles: 0

CPU 0 Branch Prediction Accuracy: 94.9771% MPKI: 13.0224 Average ROB Occupancy at Mispredict: 41.6486
Branch types
NOT_BRANCH: 37037120 74.0742%
BRANCH_DIRECT_JUMP: 125745 0.25149%
BRANCH_INDIRECT: 22046 0.044092%
BRANCH_CONDITIONAL: 11639280 23.2786%
BRANCH_DIRECT_CALL: 323606 0.647212%
BRANCH_INDIRECT_CALL: 264324 0.528648%
BRANCH_RETURN: 587930 1.17586%
BRANCH_OTHER: 0 0%

DRAM PAGES: 1048576
Allocated PAGES: 11043
