
*** ChampSim Multicore Out-of-Order Simulator ***

Warmup Instructions: 50000000
Simulation Instructions: 50000000
Number of CPUs: 1
LLC sets: 2048
LLC ways: 16
Off-chip DRAM Size: 4096 MB Channels: 1 Width: 64-bit Data Rate: 6400 MT/s
CPU 0 runs traces/SPEC-CPU2017/623.xalancbmk_s-10B.champsimtrace.xz
.xz
CPU 0 Bimodal branch predictor
BTB has LRU replacement policy
ITLB has LRU replacement policy
DTLB has LRU replacement policy
STLB has LRU replacement policy
L1I has LRU replacement policy
L1D has LRU replacement policy
L2C has LRU replacement policy
LLC has LRU replacement policy
Heartbeat CPU 0 instructions: 10000001 cycles: 3161684 heartbeat IPC: 3.16287 cumulative IPC: 3.16287 (Simulation time: 0 hr 6 min 4 sec) 
Heartbeat CPU 0 instructions: 20000000 cycles: 6308170 heartbeat IPC: 3.17815 cumulative IPC: 3.17049 (Simulation time: 0 hr 12 min 56 sec) 
Heartbeat CPU 0 instructions: 30000001 cycles: 9471775 heartbeat IPC: 3.16095 cumulative IPC: 3.1673 (Simulation time: 0 hr 19 min 31 sec) 
Heartbeat CPU 0 instructions: 40000000 cycles: 12642535 heartbeat IPC: 3.15382 cumulative IPC: 3.16392 (Simulation time: 0 hr 25 min 31 sec) 
Heartbeat CPU 0 instructions: 50000000 cycles: 15829393 heartbeat IPC: 3.13789 cumulative IPC: 3.15868 (Simulation time: 0 hr 31 min 33 sec) 

Warmup complete CPU 0 instructions: 50000004 cycles: 15829394 (Simulation time: 0 hr 31 min 33 sec) 

Heartbeat CPU 0 instructions: 60000000 cycles: 43929943 heartbeat IPC: 0.355865 cumulative IPC: 0.355865 (Simulation time: 0 hr 33 min 52 sec) 
Heartbeat CPU 0 instructions: 70000000 cycles: 73262687 heartbeat IPC: 0.340916 cumulative IPC: 0.34823 (Simulation time: 0 hr 36 min 12 sec) 
Heartbeat CPU 0 instructions: 80000000 cycles: 102745518 heartbeat IPC: 0.33918 cumulative IPC: 0.34516 (Simulation time: 0 hr 38 min 36 sec) 
Heartbeat CPU 0 instructions: 90000000 cycles: 131338184 heartbeat IPC: 0.34974 cumulative IPC: 0.346294 (Simulation time: 0 hr 40 min 56 sec) 
Heartbeat CPU 0 instructions: 100000000 cycles: 161383386 heartbeat IPC: 0.332832 cumulative IPC: 0.343515 (Simulation time: 0 hr 43 min 17 sec) 
Finished CPU 0 instructions: 50000003 cycles: 145554026 cumulative IPC: 0.343515 (Simulation time: 0 hr 43 min 17 sec) 

ChampSim completed all CPUs

Region of Interest Statistics

CPU 0 cumulative IPC: 0.343515 instructions: 50000003 cycles: 145554026
ITLB TOTAL     ACCESS:    7900768  HIT:    7866859  MISS:      33909  HIT %:    99.5708  MISS %:   0.429186   MPKI: 0.67818
ITLB LOAD TRANSLATION ACCESS:    7900768  HIT:    7866859  MISS:      33909  HIT %:    99.5708  MISS %:   0.429186   MPKI: 0.67818
ITLB PREFETCH  REQUESTED:          0  ISSUED:          0  USEFUL:          0  USELESS:          0
ITLB USEFUL LOAD PREFETCHES:          0 PREFETCH ISSUED TO LOWER LEVEL:          0  ACCURACY: -nan
ITLB TIMELY PREFETCHES:          0 LATE PREFETCHES: 0 DROPPED PREFETCHES: 0
ITLB PREFETCHES SAME FILL-ORIGIN LEVEL: 0 DIFFERENT FILL-ORIGIN LEVEL: 0
ITLB AVERAGE MISS LATENCY: 18.152 cycles
ITLB RQ	ACCESS:    9060819	FORWARD:          0	MERGED:    1150964	TO_CACHE:    7909855

DTLB TOTAL     ACCESS:   10291019  HIT:    9953705  MISS:     337314  HIT %:    96.7222  MISS %:    3.27775   MPKI: 6.74628
DTLB LOAD TRANSLATION ACCESS:   10291019  HIT:    9953705  MISS:     337314  HIT %:    96.7222  MISS %:    3.27775   MPKI: 6.74628
DTLB PREFETCH  REQUESTED:          0  ISSUED:          0  USEFUL:          0  USELESS:          0
DTLB USEFUL LOAD PREFETCHES:          0 PREFETCH ISSUED TO LOWER LEVEL:          0  ACCURACY: -nan
DTLB TIMELY PREFETCHES:          0 LATE PREFETCHES: 0 DROPPED PREFETCHES: 0
DTLB PREFETCHES SAME FILL-ORIGIN LEVEL: 0 DIFFERENT FILL-ORIGIN LEVEL: 0
DTLB AVERAGE MISS LATENCY: 12.6286 cycles
DTLB RQ	ACCESS:   11388741	FORWARD:          0	MERGED:    1072403	TO_CACHE:   10316338

STLB TOTAL     ACCESS:    3220552  HIT:    2965076  MISS:     255476  HIT %:    92.0673  MISS %:    7.93268   MPKI: 5.10952
STLB LOAD TRANSLATION ACCESS:     371223  HIT:     347564  MISS:      23659  HIT %:    93.6267  MISS %:    6.37326   MPKI: 0.47318
STLB TRANSLATION FROM L1D PREFETCHER ACCESS:    2849329  HIT:    2617512  MISS:     231817  HIT %:    91.8642  MISS %:    8.13585   MPKI: 4.63634
STLB PREFETCH  REQUESTED:          0  ISSUED:          0  USEFUL:     231487  USELESS:        341
STLB USEFUL LOAD PREFETCHES:     231487 PREFETCH ISSUED TO LOWER LEVEL:          0  ACCURACY: inf
STLB TIMELY PREFETCHES:     231487 LATE PREFETCHES: 40 DROPPED PREFETCHES: 0
STLB PREFETCHES SAME FILL-ORIGIN LEVEL: 0 DIFFERENT FILL-ORIGIN LEVEL: 0
STLB AVERAGE MISS LATENCY: 106.231 cycles
STLB RQ	ACCESS:    3808621	FORWARD:          0	MERGED:     585068	TO_CACHE:    3223553

STLB Hit, L1D data hit: 0
STLB Hit, L2C data hit: 0
STLB Hit, LLC data hit: 0
STLB Hit, LLC data miss: 0
STLB STLB hints to L2: 0
L1D TOTAL     ACCESS:   14666641  HIT:   12734770  MISS:    1931871  HIT %:    86.8281  MISS %:    13.1719   MPKI: 38.6374
L1D LOAD      ACCESS:    8973950  HIT:    8529729  MISS:     444221  HIT %:    95.0499  MISS %:    4.95012   MPKI: 8.88442
L1D RFO       ACCESS:    2334388  HIT:    2312518  MISS:      21870  HIT %:    99.0631  MISS %:   0.936862   MPKI: 0.4374
L1D PREFETCH  ACCESS:    3358303  HIT:    1892523  MISS:    1465780  HIT %:    56.3536  MISS %:    43.6464   MPKI: 29.3156
AGUS PREFETCH L1 MISS: 0
L1D PREFETCH  REQUESTED:    8337593  ISSUED:    6874962  USEFUL:     907311  USELESS:     558481
L1D USEFUL LOAD PREFETCHES:     907311 PREFETCH ISSUED TO LOWER LEVEL:    1485410  ACCURACY: 61.0815
L1D TIMELY PREFETCHES:     907311 LATE PREFETCHES: 19128 DROPPED PREFETCHES: 0
L1D PREFETCHES SAME FILL-ORIGIN LEVEL: 1485410 DIFFERENT FILL-ORIGIN LEVEL: 0
L1D AVERAGE MISS LATENCY: 179.66 cycles
L1D RQ	ACCESS:   14679309	FORWARD:          0	MERGED:    5625690	TO_CACHE:    8993934
L1D WQ	ACCESS:    2425925	FORWARD:      59692	MERGED:      31118	TO_CACHE:    2394807
L1D PQ	ACCESS:    3437564	FORWARD:          0	MERGED:        159	TO_CACHE:    3437398

L1D UNIQUE REGIONS ACCESSED: 0
L1D REGIONS CONFLICTS: 0
L1D Cross Page Prefetch Requests: 4711288
L1D Same Page Prefetch Requests: 2275796
L1D ROI Sum of L1D PQ occupancy: 142240436
L1D PREFETCHES PUSHED FROM L2C: 0
L1I TOTAL     ACCESS:    9009331  HIT:    8833294  MISS:     176037  HIT %:    98.0461  MISS %:    1.95394   MPKI: 3.52074
L1I LOAD      ACCESS:    9009331  HIT:    8833294  MISS:     176037  HIT %:    98.0461  MISS %:    1.95394   MPKI: 3.52074
L1I PREFETCH  REQUESTED:          0  ISSUED:          0  USEFUL:          0  USELESS:          0
L1I USEFUL LOAD PREFETCHES:          0 PREFETCH ISSUED TO LOWER LEVEL:          0  ACCURACY: -nan
L1I TIMELY PREFETCHES:          0 LATE PREFETCHES: 0 DROPPED PREFETCHES: 0
L1I PREFETCHES SAME FILL-ORIGIN LEVEL: 0 DIFFERENT FILL-ORIGIN LEVEL: 0
L1I AVERAGE MISS LATENCY: 39.8079 cycles
L1I RQ	ACCESS:   15173104	FORWARD:          0	MERGED:    6112285	TO_CACHE:    9060819

BTB TOTAL     ACCESS:    8240388  HIT:    8162326  MISS:      78062  HIT %:    99.0527  MISS %:    0.94731   MPKI: 1.56124
BTB BRANCH_DIRECT_JUMP	ACCESS:     125745  HIT:     125105  MISS:        640
BTB BRANCH_INDIRECT	ACCESS:      22046  HIT:       8847  MISS:      13199
BTB BRANCH_CONDITIONAL	ACCESS:    6916737  HIT:    6913889  MISS:       2848
BTB BRANCH_DIRECT_CALL	ACCESS:     323606  HIT:     322531  MISS:       1075
BTB BRANCH_INDIRECT_CALL	ACCESS:     264324  HIT:     261288  MISS:       3036
BTB BRANCH_RETURN	ACCESS:     587930  HIT:     530666  MISS:      57264
BTB BRANCH_OTHER ACCESS:          0  HIT:          0  MISS:          0

L2C TOTAL     ACCESS:    2408676  HIT:     558771  MISS:    1849905  HIT %:    23.1983  MISS %:    76.8017   MPKI: 36.9981
L2C LOAD      ACCESS:     601124  HIT:     203360  MISS:     397764  HIT %:      33.83  MISS %:      66.17   MPKI: 7.95528
L2C DATA LOAD MPKI: 7.1694
L2C INSTRUCTION LOAD MPKI: 0.78588
L2C RFO       ACCESS:      21358  HIT:       8475  MISS:      12883  HIT %:    39.6807  MISS %:    60.3193   MPKI: 0.25766
L2C PREFETCH  ACCESS:    1485410  HIT:     108160  MISS:    1377250  HIT %:    7.28149  MISS %:    92.7185   MPKI: 27.545
AGUS PREFETCH L1 MISS: 0
L2C DATA PREFETCH MPKI: 27.545
L2C INSTRUCTION PREFETCH MPKI: 0
L2C WRITEBACK ACCESS:      44113  HIT:      43887  MISS:        226  HIT %:    99.4877  MISS %:   0.512321   MPKI: 0.00452
L2C LOAD TRANSLATION ACCESS:      23909  HIT:      20880  MISS:       3029  HIT %:    87.3311  MISS %:    12.6689   MPKI: 0.06058
L2C TRANSLATION FROM L1D PREFETCHER ACCESS:     232762  HIT:     174009  MISS:      58753  HIT %:    74.7583  MISS %:    25.2417   MPKI: 1.17506
L2C PREFETCH  REQUESTED:          0  ISSUED:          0  USEFUL:      68055  USELESS:    1368180
L2C USEFUL LOAD PREFETCHES:      68055 PREFETCH ISSUED TO LOWER LEVEL:    1377250  ACCURACY: 4.94137
L2C TIMELY PREFETCHES:      68055 LATE PREFETCHES: 0 DROPPED PREFETCHES: 0
L2C PREFETCHES SAME FILL-ORIGIN LEVEL: 0 DIFFERENT FILL-ORIGIN LEVEL: 0
L2C AVERAGE MISS LATENCY: 181.008 cycles
L2C RQ	ACCESS:     879169	FORWARD:          0	MERGED:          0	TO_CACHE:     879153
L2C WQ	ACCESS:      44113	FORWARD:         16	MERGED:          0	TO_CACHE:      44113
L2C PQ	ACCESS:    1485410	FORWARD:          0	MERGED:          0	TO_CACHE:    1485410

L2C Instructions Evicting Data 37305
L2C Translations Evicting Data 58747
L2C Data Evicting Data 1652519
L2C Instructions Evicting Instructions 927
L2C Translations Evicting Instructions 981
L2C Data Evicting Instructions 37405
L2C Instructions Evicting Translations 1062
L2C Translations Evicting Translations 2054
L2C Data Evicting Translations 58679
L2C Dense regions hint from L2: 0
PSCL5 TOTAL     ACCESS:     255476  HIT:     255476  MISS:          0  HIT %:        100  MISS %:          0   MPKI: 0
PSCL5 LOAD TRANSLATION ACCESS:      23619  HIT:      23619  MISS:          0  HIT %:        100  MISS %:          0   MPKI: 0
PSCL5 TRANSLATION FROM L1D PREFETCHER ACCESS:     231857  HIT:     231857  MISS:          0  HIT %:        100  MISS %:          0   MPKI: 0
PSCL5 PREFETCH  REQUESTED:          0  ISSUED:          0  USEFUL:          0  USELESS:          0
PSCL5 USEFUL LOAD PREFETCHES:          0 PREFETCH ISSUED TO LOWER LEVEL:          0  ACCURACY: -nan
PSCL5 TIMELY PREFETCHES:          0 LATE PREFETCHES: 0 DROPPED PREFETCHES: 0
PSCL5 PREFETCHES SAME FILL-ORIGIN LEVEL: 0 DIFFERENT FILL-ORIGIN LEVEL: 0

PSCL4 TOTAL     ACCESS:     255476  HIT:     255476  MISS:          0  HIT %:        100  MISS %:          0   MPKI: 0
PSCL4 LOAD TRANSLATION ACCESS:      23619  HIT:      23619  MISS:          0  HIT %:        100  MISS %:          0   MPKI: 0
PSCL4 TRANSLATION FROM L1D PREFETCHER ACCESS:     231857  HIT:     231857  MISS:          0  HIT %:        100  MISS %:          0   MPKI: 0
PSCL4 PREFETCH  REQUESTED:          0  ISSUED:          0  USEFUL:          0  USELESS:          0
PSCL4 USEFUL LOAD PREFETCHES:          0 PREFETCH ISSUED TO LOWER LEVEL:          0  ACCURACY: -nan
PSCL4 TIMELY PREFETCHES:          0 LATE PREFETCHES: 0 DROPPED PREFETCHES: 0
PSCL4 PREFETCHES SAME FILL-ORIGIN LEVEL: 0 DIFFERENT FILL-ORIGIN LEVEL: 0

PSCL3 TOTAL     ACCESS:     255476  HIT:     255476  MISS:          0  HIT %:        100  MISS %:          0   MPKI: 0
PSCL3 LOAD TRANSLATION ACCESS:      23619  HIT:      23619  MISS:          0  HIT %:        100  MISS %:          0   MPKI: 0
PSCL3 TRANSLATION FROM L1D PREFETCHER ACCESS:     231857  HIT:     231857  MISS:          0  HIT %:        100  MISS %:          0   MPKI: 0
PSCL3 PREFETCH  REQUESTED:          0  ISSUED:          0  USEFUL:          0  USELESS:          0
PSCL3 USEFUL LOAD PREFETCHES:          0 PREFETCH ISSUED TO LOWER LEVEL:          0  ACCURACY: -nan
PSCL3 TIMELY PREFETCHES:          0 LATE PREFETCHES: 0 DROPPED PREFETCHES: 0
PSCL3 PREFETCHES SAME FILL-ORIGIN LEVEL: 0 DIFFERENT FILL-ORIGIN LEVEL: 0

PSCL2 TOTAL     ACCESS:     255476  HIT:     254281  MISS:       1195  HIT %:    99.5322  MISS %:   0.467754   MPKI: 0.0239
PSCL2 LOAD TRANSLATION ACCESS:      24524  HIT:      23329  MISS:       1195  HIT %:    95.1272  MISS %:    4.87278   MPKI: 0.0239
PSCL2 TRANSLATION FROM L1D PREFETCHER ACCESS:     230952  HIT:     230952  MISS:          0  HIT %:        100  MISS %:          0   MPKI: 0
PSCL2 PREFETCH  REQUESTED:          0  ISSUED:          0  USEFUL:          0  USELESS:          0
PSCL2 USEFUL LOAD PREFETCHES:          0 PREFETCH ISSUED TO LOWER LEVEL:          0  ACCURACY: -nan
PSCL2 TIMELY PREFETCHES:          0 LATE PREFETCHES: 0 DROPPED PREFETCHES: 0
PSCL2 PREFETCHES SAME FILL-ORIGIN LEVEL: 0 DIFFERENT FILL-ORIGIN LEVEL: 0

LLC TOTAL     ACCESS:    1872859  HIT:     143593  MISS:    1729266  HIT %:    7.66705  MISS %:     92.333   MPKI: 34.5853
LLC LOAD      ACCESS:     397764  HIT:      40204  MISS:     357560  HIT %:    10.1075  MISS %:    89.8925   MPKI: 7.1512
LLC RFO       ACCESS:      12883  HIT:       1731  MISS:      11152  HIT %:    13.4363  MISS %:    86.5637   MPKI: 0.22304
LLC PREFETCH  ACCESS:    1377249  HIT:      75863  MISS:    1301386  HIT %:     5.5083  MISS %:    94.4917   MPKI: 26.0277
AGUS PREFETCH L1 MISS: 0
LLC WRITEBACK ACCESS:      23181  HIT:      23049  MISS:        132  HIT %:    99.4306  MISS %:   0.569432   MPKI: 0.00264
LLC LOAD TRANSLATION ACCESS:       3029  HIT:        697  MISS:       2332  HIT %:    23.0109  MISS %:    76.9891   MPKI: 0.04664
LLC TRANSLATION FROM L1D PREFETCHER ACCESS:      58753  HIT:       2049  MISS:      56704  HIT %:    3.48748  MISS %:    96.5125   MPKI: 1.13408
LLC PREFETCH  REQUESTED:          0  ISSUED:          0  USEFUL:       8203  USELESS:    1351154
LLC USEFUL LOAD PREFETCHES:       8203 PREFETCH ISSUED TO LOWER LEVEL:    1301386  ACCURACY: 0.630328
LLC TIMELY PREFETCHES:       8203 LATE PREFETCHES: 0 DROPPED PREFETCHES: 0
LLC PREFETCHES SAME FILL-ORIGIN LEVEL: 0 DIFFERENT FILL-ORIGIN LEVEL: 0
LLC AVERAGE MISS LATENCY: 161.545 cycles
LLC RQ	ACCESS:     472429	FORWARD:          0	MERGED:          0	TO_CACHE:     472429
LLC WQ	ACCESS:      23181	FORWARD:          1	MERGED:          0	TO_CACHE:      23181
LLC PQ	ACCESS:    1377250	FORWARD:          0	MERGED:          0	TO_CACHE:    1377249

LLC Dense regions hint to LLC: 0

RAW hits: 62752
Loads Generated: 14742061
Loads sent to L1D: 14679309
Stores Generated: 2425922
Stores sent to L1D: 2425925
Major fault: 0 Minor fault: 11043
Allocated PAGES: 11043

stream: 
stream:times selected: 4098911
stream:pref_reqs: 3985963
stream:pref_reqs_filtered_out: 1377979
stream:pref_filled: 839386
stream:pref_useful: 96899
stream:pref_late: 21060
stream:misses: 173342
stream:misses_by_poll: 0

CS: 
CS:times selected: 110921
CS:pref_reqs: 316087
CS:pref_reqs_filtered_out: 106568
CS:pref_filled: 77170
CS:pref_useful: 59033
CS:pref_late: 690
CS:misses: 9598
CS:misses_by_poll: 108

CPLX: 
CPLX:times selected: 3950295
CPLX:pref_reqs: 610076
CPLX:pref_reqs_filtered_out: 246089
CPLX:pref_filled: 178660
CPLX:pref_useful: 11783
CPLX:pref_late: 390
CPLX:misses: 492321
CPLX:misses_by_poll: 370

ISB: 
ISB:total access:12838937
ISB:times selected:6828153
ISB:canary counter:0
ISB:pref_reqs: 17001662
ISB:pref_reqs_filtered_out: 8989347
ISB:pref_filled: 1790744
ISB:pref_useful: 1735481
ISB:pref_late: 2307
ISB:misses: 38008
ISB:misses_by_poll: 10359
ISB:Stream end: 4660229
ISB:No Prediction: 6010784 46.8168
ISB:No translation: 425650975 3315.31
ISB:Predictions: 4945363 38.5185

NL_L1: 
NL:times selected: 17762
NL:pref_reqs: 17762
NL:pref_reqs_filtered_out: 4272
NL:pref_filled: 5186
NL:pref_useful: 526
NL:pref_late: 234
NL:misses: 3963
NL:misses_by_poll: 0

Coverage: 67.132
total selections: 15006042
total_filled: 1465780
total_useful: 907311
total_late: 25253
total_polluted: 10837
total_misses_after_warmup: 464204
conflicts: 1941858

test: 0
Prefetcher final stats
Training Unit Size: 207
Addr table size: 54501 54510
Stream divergence: 178466 1.39004
Stream divergence -- new stream: 0
--------------------------Training unit table ------------------------

DRAM Statistics
 CHANNEL 0
 RQ ROW_BUFFER_HIT:     722264  ROW_BUFFER_MISS:    1006870
 DBUS_CONGESTED:        258
 WQ ROW_BUFFER_HIT:       2438  ROW_BUFFER_MISS:      15932  FULL:          0

 AVG_CONGESTED_CYCLE: 4
 All warmup complete: 2
Channel 0 Bank busy for read cycles: 0
Channel 0 Bank busy for write cycles: 0
Channel 0
Rank 0
0banks busy for read cycles: 67038467
0banks busy for write cycles: 12349
1banks busy for read cycles: 25899439
1banks busy for write cycles: 2312757
2banks busy for read cycles: 18338271
2banks busy for write cycles: 563608
3banks busy for read cycles: 13066308
3banks busy for write cycles: 170843
4banks busy for read cycles: 9218626
4banks busy for write cycles: 54767
5banks busy for read cycles: 5547893
5banks busy for write cycles: 15818
6banks busy for read cycles: 2494124
6banks busy for write cycles: 5764
7banks busy for read cycles: 705636
7banks busy for write cycles: 2206
8banks busy for read cycles: 106980
8banks busy for write cycles: 171

CPU 0 Branch Prediction Accuracy: 94.9771% MPKI: 13.0224 Average ROB Occupancy at Mispredict: 41.8847
Branch types
NOT_BRANCH: 37037117 74.0742%
BRANCH_DIRECT_JUMP: 125745 0.25149%
BRANCH_INDIRECT: 22046 0.044092%
BRANCH_CONDITIONAL: 11639280 23.2786%
BRANCH_DIRECT_CALL: 323606 0.647212%
BRANCH_INDIRECT_CALL: 264324 0.528648%
BRANCH_RETURN: 587930 1.17586%
BRANCH_OTHER: 0 0%

DRAM PAGES: 1048576
Allocated PAGES: 11043
