
*** ChampSim Multicore Out-of-Order Simulator ***

Warmup Instructions: 50000000
Simulation Instructions: 50000000
Number of CPUs: 1
LLC sets: 2048
LLC ways: 16
Off-chip DRAM Size: 4096 MB Channels: 1 Width: 64-bit Data Rate: 6400 MT/s
CPU 0 runs traces/SPEC-CPU2017/623.xalancbmk_s-10B.champsimtrace.xz
.xz
CPU 0 Bimodal branch predictor
BTB has LRU replacement policy
ITLB has LRU replacement policy
DTLB has LRU replacement policy
STLB has LRU replacement policy
L1I has LRU replacement policy
L1D has LRU replacement policy
L2C has LRU replacement policy
LLC has LRU replacement policy
Heartbeat CPU 0 instructions: 10000001 cycles: 3175762 heartbeat IPC: 3.14885 cumulative IPC: 3.14885 (Simulation time: 0 hr 3 min 38 sec) 
Heartbeat CPU 0 instructions: 20000000 cycles: 6327433 heartbeat IPC: 3.17292 cumulative IPC: 3.16084 (Simulation time: 0 hr 7 min 17 sec) 
Heartbeat CPU 0 instructions: 30000001 cycles: 9494332 heartbeat IPC: 3.15766 cumulative IPC: 3.15978 (Simulation time: 0 hr 10 min 53 sec) 
Heartbeat CPU 0 instructions: 40000000 cycles: 12674603 heartbeat IPC: 3.14439 cumulative IPC: 3.15592 (Simulation time: 0 hr 14 min 30 sec) 
Heartbeat CPU 0 instructions: 50000000 cycles: 15872575 heartbeat IPC: 3.12698 cumulative IPC: 3.15009 (Simulation time: 0 hr 18 min 12 sec) 

Warmup complete CPU 0 instructions: 50000004 cycles: 15872576 (Simulation time: 0 hr 18 min 12 sec) 

Heartbeat CPU 0 instructions: 60000000 cycles: 48011208 heartbeat IPC: 0.311152 cumulative IPC: 0.311152 (Simulation time: 0 hr 19 min 9 sec) 
Heartbeat CPU 0 instructions: 70000000 cycles: 80917482 heartbeat IPC: 0.303893 cumulative IPC: 0.30748 (Simulation time: 0 hr 20 min 8 sec) 
Heartbeat CPU 0 instructions: 80000000 cycles: 113997076 heartbeat IPC: 0.302301 cumulative IPC: 0.305734 (Simulation time: 0 hr 21 min 7 sec) 
Heartbeat CPU 0 instructions: 90000000 cycles: 145450929 heartbeat IPC: 0.317926 cumulative IPC: 0.308693 (Simulation time: 0 hr 22 min 5 sec) 
Heartbeat CPU 0 instructions: 100000000 cycles: 178574738 heartbeat IPC: 0.301898 cumulative IPC: 0.30731 (Simulation time: 0 hr 23 min 4 sec) 
Finished CPU 0 instructions: 50000003 cycles: 162702196 cumulative IPC: 0.30731 (Simulation time: 0 hr 23 min 4 sec) 

ChampSim completed all CPUs

Region of Interest Statistics

CPU 0 cumulative IPC: 0.30731 instructions: 50000003 cycles: 162702196
ITLB TOTAL     ACCESS:    7900568  HIT:    7866659  MISS:      33909  HIT %:    99.5708  MISS %:   0.429197   MPKI: 0.67818
ITLB LOAD TRANSLATION ACCESS:    7900568  HIT:    7866659  MISS:      33909  HIT %:    99.5708  MISS %:   0.429197   MPKI: 0.67818
ITLB PREFETCH  REQUESTED:          0  ISSUED:          0  USEFUL:          0  USELESS:          0
ITLB USEFUL LOAD PREFETCHES:          0 PREFETCH ISSUED TO LOWER LEVEL:          0  ACCURACY: -nan
ITLB TIMELY PREFETCHES:          0 LATE PREFETCHES: 0 DROPPED PREFETCHES: 0
ITLB PREFETCHES SAME FILL-ORIGIN LEVEL: 0 DIFFERENT FILL-ORIGIN LEVEL: 0
ITLB AVERAGE MISS LATENCY: 18.3019 cycles
ITLB RQ	ACCESS:    9060683	FORWARD:          0	MERGED:    1151012	TO_CACHE:    7909671

DTLB TOTAL     ACCESS:   10322773  HIT:    9985455  MISS:     337318  HIT %:    96.7323  MISS %:    3.26771   MPKI: 6.74636
DTLB LOAD TRANSLATION ACCESS:   10322773  HIT:    9985455  MISS:     337318  HIT %:    96.7323  MISS %:    3.26771   MPKI: 6.74636
DTLB PREFETCH  REQUESTED:          0  ISSUED:          0  USEFUL:          0  USELESS:          0
DTLB USEFUL LOAD PREFETCHES:          0 PREFETCH ISSUED TO LOWER LEVEL:          0  ACCURACY: -nan
DTLB TIMELY PREFETCHES:          0 LATE PREFETCHES: 0 DROPPED PREFETCHES: 0
DTLB PREFETCHES SAME FILL-ORIGIN LEVEL: 0 DIFFERENT FILL-ORIGIN LEVEL: 0
DTLB AVERAGE MISS LATENCY: 17.5458 cycles
DTLB RQ	ACCESS:   11396545	FORWARD:          0	MERGED:    1045313	TO_CACHE:   10351232

STLB TOTAL     ACCESS:    2460786  HIT:    2201936  MISS:     258850  HIT %:     89.481  MISS %:     10.519   MPKI: 5.177
STLB LOAD TRANSLATION ACCESS:     371227  HIT:     293653  MISS:      77574  HIT %:    79.1034  MISS %:    20.8966   MPKI: 1.55148
STLB TRANSLATION FROM L1D PREFETCHER ACCESS:    2089559  HIT:    1908283  MISS:     181276  HIT %:    91.3247  MISS %:    8.67532   MPKI: 3.62552
STLB PREFETCH  REQUESTED:          0  ISSUED:          0  USEFUL:     179639  USELESS:       1635
STLB USEFUL LOAD PREFETCHES:     179639 PREFETCH ISSUED TO LOWER LEVEL:          0  ACCURACY: inf
STLB TIMELY PREFETCHES:     179639 LATE PREFETCHES: 246 DROPPED PREFETCHES: 0
STLB PREFETCHES SAME FILL-ORIGIN LEVEL: 0 DIFFERENT FILL-ORIGIN LEVEL: 0
STLB AVERAGE MISS LATENCY: 89.0426 cycles
STLB RQ	ACCESS:    3026281	FORWARD:          0	MERGED:     561284	TO_CACHE:    2464997

STLB Hit, L1D data hit: 0
STLB Hit, L2C data hit: 0
STLB Hit, LLC data hit: 0
STLB Hit, LLC data miss: 0
STLB STLB hints to L2: 0
L1D TOTAL     ACCESS:   13736446  HIT:   11618653  MISS:    2117793  HIT %:    84.5827  MISS %:    15.4173   MPKI: 42.3559
L1D LOAD      ACCESS:    8971999  HIT:    8191117  MISS:     780882  HIT %:    91.2965  MISS %:    8.70355   MPKI: 15.6176
L1D RFO       ACCESS:    2333933  HIT:    2312254  MISS:      21679  HIT %:    99.0711  MISS %:   0.928861   MPKI: 0.43358
L1D PREFETCH  ACCESS:    2430514  HIT:    1115282  MISS:    1315232  HIT %:    45.8867  MISS %:    54.1133   MPKI: 26.3046
AGUS PREFETCH L1 MISS: 0
L1D PREFETCH  REQUESTED:    5381856  ISSUED:    5333614  USEFUL:     571177  USELESS:     744069
L1D USEFUL LOAD PREFETCHES:     571177 PREFETCH ISSUED TO LOWER LEVEL:    1368070  ACCURACY: 41.7506
L1D TIMELY PREFETCHES:     571177 LATE PREFETCHES: 52330 DROPPED PREFETCHES: 0
L1D PREFETCHES SAME FILL-ORIGIN LEVEL: 1368070 DIFFERENT FILL-ORIGIN LEVEL: 0
L1D AVERAGE MISS LATENCY: 152.35 cycles
L1D RQ	ACCESS:   14679324	FORWARD:          0	MERGED:    5617609	TO_CACHE:    9002014
L1D WQ	ACCESS:    2425925	FORWARD:      59707	MERGED:      31394	TO_CACHE:    2394531
L1D PQ	ACCESS:    2678560	FORWARD:          0	MERGED:      23500	TO_CACHE:    2655054

L1D UNIQUE REGIONS ACCESSED: 0
L1D REGIONS CONFLICTS: 0
L1D Cross Page Prefetch Requests: 2160018
L1D Same Page Prefetch Requests: 3254033
L1D ROI Sum of L1D PQ occupancy: 91649322
L1D PREFETCHES PUSHED FROM L2C: 0
L1I TOTAL     ACCESS:    9009158  HIT:    8833129  MISS:     176029  HIT %:    98.0461  MISS %:    1.95389   MPKI: 3.52058
L1I LOAD      ACCESS:    9009158  HIT:    8833129  MISS:     176029  HIT %:    98.0461  MISS %:    1.95389   MPKI: 3.52058
L1I PREFETCH  REQUESTED:          0  ISSUED:          0  USEFUL:          0  USELESS:          0
L1I USEFUL LOAD PREFETCHES:          0 PREFETCH ISSUED TO LOWER LEVEL:          0  ACCURACY: -nan
L1I TIMELY PREFETCHES:          0 LATE PREFETCHES: 0 DROPPED PREFETCHES: 0
L1I PREFETCHES SAME FILL-ORIGIN LEVEL: 0 DIFFERENT FILL-ORIGIN LEVEL: 0
L1I AVERAGE MISS LATENCY: 39.8921 cycles
L1I RQ	ACCESS:   15172959	FORWARD:          0	MERGED:    6112276	TO_CACHE:    9060683

BTB TOTAL     ACCESS:    8240388  HIT:    8162326  MISS:      78062  HIT %:    99.0527  MISS %:    0.94731   MPKI: 1.56124
BTB BRANCH_DIRECT_JUMP	ACCESS:     125745  HIT:     125105  MISS:        640
BTB BRANCH_INDIRECT	ACCESS:      22046  HIT:       8847  MISS:      13199
BTB BRANCH_CONDITIONAL	ACCESS:    6916737  HIT:    6913889  MISS:       2848
BTB BRANCH_DIRECT_CALL	ACCESS:     323606  HIT:     322531  MISS:       1075
BTB BRANCH_INDIRECT_CALL	ACCESS:     264324  HIT:     261288  MISS:       3036
BTB BRANCH_RETURN	ACCESS:     587930  HIT:     530666  MISS:      57264
BTB BRANCH_OTHER ACCESS:          0  HIT:          0  MISS:          0

L2C TOTAL     ACCESS:    2598263  HIT:     605942  MISS:    1992321  HIT %:     23.321  MISS %:     76.679   MPKI: 39.8464
L2C LOAD      ACCESS:     904578  HIT:     220220  MISS:     684358  HIT %:    24.3451  MISS %:    75.6549   MPKI: 13.6872
L2C DATA LOAD MPKI: 12.8899
L2C INSTRUCTION LOAD MPKI: 0.79722
L2C RFO       ACCESS:      21161  HIT:       8332  MISS:      12829  HIT %:    39.3743  MISS %:    60.6257   MPKI: 0.25658
L2C PREFETCH  ACCESS:    1368067  HIT:     137257  MISS:    1230810  HIT %:    10.0329  MISS %:    89.9671   MPKI: 24.6162
AGUS PREFETCH L1 MISS: 0
L2C DATA PREFETCH MPKI: 24.6162
L2C INSTRUCTION PREFETCH MPKI: 0
L2C WRITEBACK ACCESS:      44302  HIT:      44080  MISS:        222  HIT %:    99.4989  MISS %:   0.501106   MPKI: 0.00444
L2C LOAD TRANSLATION ACCESS:      77643  HIT:      72642  MISS:       5001  HIT %:     93.559  MISS %:    6.44102   MPKI: 0.10002
L2C TRANSLATION FROM L1D PREFETCHER ACCESS:     182512  HIT:     123411  MISS:      59101  HIT %:     67.618  MISS %:     32.382   MPKI: 1.18202
L2C PREFETCH  REQUESTED:          0  ISSUED:          0  USEFUL:      77345  USELESS:    1212734
L2C USEFUL LOAD PREFETCHES:      77345 PREFETCH ISSUED TO LOWER LEVEL:    1230810  ACCURACY: 6.28407
L2C TIMELY PREFETCHES:      77345 LATE PREFETCHES: 0 DROPPED PREFETCHES: 0
L2C PREFETCHES SAME FILL-ORIGIN LEVEL: 0 DIFFERENT FILL-ORIGIN LEVEL: 0
L2C AVERAGE MISS LATENCY: 154.729 cycles
L2C RQ	ACCESS:    1185907	FORWARD:          0	MERGED:          0	TO_CACHE:    1185894
L2C WQ	ACCESS:      44302	FORWARD:         16	MERGED:          0	TO_CACHE:      44302
L2C PQ	ACCESS:    1368070	FORWARD:          0	MERGED:          0	TO_CACHE:    1368067

L2C Instructions Evicting Data 37763
L2C Translations Evicting Data 61320
L2C Data Evicting Data 1789028
L2C Instructions Evicting Instructions 960
L2C Translations Evicting Instructions 930
L2C Data Evicting Instructions 37990
L2C Instructions Evicting Translations 1138
L2C Translations Evicting Translations 1852
L2C Data Evicting Translations 61118
L2C Dense regions hint from L2: 0
PSCL5 TOTAL     ACCESS:     258850  HIT:     258850  MISS:          0  HIT %:        100  MISS %:          0   MPKI: 0
PSCL5 LOAD TRANSLATION ACCESS:      77328  HIT:      77328  MISS:          0  HIT %:        100  MISS %:          0   MPKI: 0
PSCL5 TRANSLATION FROM L1D PREFETCHER ACCESS:     181522  HIT:     181522  MISS:          0  HIT %:        100  MISS %:          0   MPKI: 0
PSCL5 PREFETCH  REQUESTED:          0  ISSUED:          0  USEFUL:          0  USELESS:          0
PSCL5 USEFUL LOAD PREFETCHES:          0 PREFETCH ISSUED TO LOWER LEVEL:          0  ACCURACY: -nan
PSCL5 TIMELY PREFETCHES:          0 LATE PREFETCHES: 0 DROPPED PREFETCHES: 0
PSCL5 PREFETCHES SAME FILL-ORIGIN LEVEL: 0 DIFFERENT FILL-ORIGIN LEVEL: 0

PSCL4 TOTAL     ACCESS:     258850  HIT:     258850  MISS:          0  HIT %:        100  MISS %:          0   MPKI: 0
PSCL4 LOAD TRANSLATION ACCESS:      77328  HIT:      77328  MISS:          0  HIT %:        100  MISS %:          0   MPKI: 0
PSCL4 TRANSLATION FROM L1D PREFETCHER ACCESS:     181522  HIT:     181522  MISS:          0  HIT %:        100  MISS %:          0   MPKI: 0
PSCL4 PREFETCH  REQUESTED:          0  ISSUED:          0  USEFUL:          0  USELESS:          0
PSCL4 USEFUL LOAD PREFETCHES:          0 PREFETCH ISSUED TO LOWER LEVEL:          0  ACCURACY: -nan
PSCL4 TIMELY PREFETCHES:          0 LATE PREFETCHES: 0 DROPPED PREFETCHES: 0
PSCL4 PREFETCHES SAME FILL-ORIGIN LEVEL: 0 DIFFERENT FILL-ORIGIN LEVEL: 0

PSCL3 TOTAL     ACCESS:     258850  HIT:     258850  MISS:          0  HIT %:        100  MISS %:          0   MPKI: 0
PSCL3 LOAD TRANSLATION ACCESS:      77328  HIT:      77328  MISS:          0  HIT %:        100  MISS %:          0   MPKI: 0
PSCL3 TRANSLATION FROM L1D PREFETCHER ACCESS:     181522  HIT:     181522  MISS:          0  HIT %:        100  MISS %:          0   MPKI: 0
PSCL3 PREFETCH  REQUESTED:          0  ISSUED:          0  USEFUL:          0  USELESS:          0
PSCL3 USEFUL LOAD PREFETCHES:          0 PREFETCH ISSUED TO LOWER LEVEL:          0  ACCURACY: -nan
PSCL3 TIMELY PREFETCHES:          0 LATE PREFETCHES: 0 DROPPED PREFETCHES: 0
PSCL3 PREFETCHES SAME FILL-ORIGIN LEVEL: 0 DIFFERENT FILL-ORIGIN LEVEL: 0

PSCL2 TOTAL     ACCESS:     258850  HIT:     257545  MISS:       1305  HIT %:    99.4958  MISS %:   0.504153   MPKI: 0.0261
PSCL2 LOAD TRANSLATION ACCESS:      78318  HIT:      77013  MISS:       1305  HIT %:    98.3337  MISS %:    1.66628   MPKI: 0.0261
PSCL2 TRANSLATION FROM L1D PREFETCHER ACCESS:     180532  HIT:     180532  MISS:          0  HIT %:        100  MISS %:          0   MPKI: 0
PSCL2 PREFETCH  REQUESTED:          0  ISSUED:          0  USEFUL:          0  USELESS:          0
PSCL2 USEFUL LOAD PREFETCHES:          0 PREFETCH ISSUED TO LOWER LEVEL:          0  ACCURACY: -nan
PSCL2 TIMELY PREFETCHES:          0 LATE PREFETCHES: 0 DROPPED PREFETCHES: 0
PSCL2 PREFETCHES SAME FILL-ORIGIN LEVEL: 0 DIFFERENT FILL-ORIGIN LEVEL: 0

LLC TOTAL     ACCESS:    2015396  HIT:     157426  MISS:    1857970  HIT %:    7.81117  MISS %:    92.1888   MPKI: 37.1594
LLC LOAD      ACCESS:     684358  HIT:      53890  MISS:     630468  HIT %:    7.87453  MISS %:    92.1255   MPKI: 12.6094
LLC RFO       ACCESS:      12829  HIT:       1730  MISS:      11099  HIT %:    13.4851  MISS %:    86.5149   MPKI: 0.22198
LLC PREFETCH  ACCESS:    1230810  HIT:      73861  MISS:    1156949  HIT %:    6.00101  MISS %:     93.999   MPKI: 23.139
AGUS PREFETCH L1 MISS: 0
LLC WRITEBACK ACCESS:      23297  HIT:      23170  MISS:        127  HIT %:    99.4549  MISS %:   0.545135   MPKI: 0.00254
LLC LOAD TRANSLATION ACCESS:       5001  HIT:       1185  MISS:       3816  HIT %:    23.6953  MISS %:    76.3047   MPKI: 0.07632
LLC TRANSLATION FROM L1D PREFETCHER ACCESS:      59101  HIT:       3590  MISS:      55511  HIT %:    6.07435  MISS %:    93.9257   MPKI: 1.11022
LLC PREFETCH  REQUESTED:          0  ISSUED:          0  USEFUL:      15730  USELESS:    1197470
LLC USEFUL LOAD PREFETCHES:      15730 PREFETCH ISSUED TO LOWER LEVEL:    1156949  ACCURACY: 1.35961
LLC TIMELY PREFETCHES:      15730 LATE PREFETCHES: 0 DROPPED PREFETCHES: 0
LLC PREFETCHES SAME FILL-ORIGIN LEVEL: 0 DIFFERENT FILL-ORIGIN LEVEL: 0
LLC AVERAGE MISS LATENCY: 133.75 cycles
LLC RQ	ACCESS:     761289	FORWARD:          0	MERGED:          0	TO_CACHE:     761289
LLC WQ	ACCESS:      23297	FORWARD:          0	MERGED:          0	TO_CACHE:      23297
LLC PQ	ACCESS:    1230810	FORWARD:          0	MERGED:          0	TO_CACHE:    1230810

LLC Dense regions hint to LLC: 0

RAW hits: 62737
Loads Generated: 14742061
Loads sent to L1D: 14679324
Stores Generated: 2425922
Stores sent to L1D: 2425925
Major fault: 0 Minor fault: 11043
Allocated PAGES: 11043

stream: 
stream:times selected: 3431125
stream:pref_filled: 1373366
stream:pref_useful: 183488
stream:pref_late: 64947
stream:misses: 12603
stream:misses_by_poll: 0

CS: 
CS:times selected: 109645
CS:pref_filled: 94370
CS:pref_useful: 65061
CS:pref_late: 975
CS:misses: 1350
CS:misses_by_poll: 133

CPLX: 
CPLX:times selected: 3289809
CPLX:pref_filled: 123708
CPLX:pref_useful: 15899
CPLX:pref_late: 651
CPLX:misses: 34168
CPLX:misses_by_poll: 76

ISB: 
ISB:times selected:3366698
ISB:pref_filled: 1101458
ISB:pref_useful: 951607
ISB:pref_late: 17544
ISB:misses: 1414227
ISB:misses_by_poll: 7353

NL_L1: 
NL:times selected: 8016
NL:pref_filled: 3100
NL:pref_useful: 490
NL:pref_late: 277
NL:misses: 4567
NL:misses_by_poll: 0

total selections: 10205293
total_filled: 1315232
total_useful: 571177
total_late: 86338
total_polluted: 7562
total_misses_after_warmup: 810896
conflicts: 1936217

test: 2214284

DRAM Statistics
 CHANNEL 0
 RQ ROW_BUFFER_HIT:    1041176  ROW_BUFFER_MISS:     816667
 DBUS_CONGESTED:        320
 WQ ROW_BUFFER_HIT:       1651  ROW_BUFFER_MISS:      16729  FULL:          0

 AVG_CONGESTED_CYCLE: 4
 All warmup complete: 2
Channel 0 Bank busy for read cycles: 0
Channel 0 Bank busy for write cycles: 0
Channel 0
Rank 0
0banks busy for read cycles: 81440945
0banks busy for write cycles: 13151
1banks busy for read cycles: 31288391
1banks busy for write cycles: 2370035
2banks busy for read cycles: 20441597
2banks busy for write cycles: 527331
3banks busy for read cycles: 12488257
3banks busy for write cycles: 135009
4banks busy for read cycles: 7513336
4banks busy for write cycles: 43143
5banks busy for read cycles: 4225453
5banks busy for write cycles: 10000
6banks busy for read cycles: 1722504
6banks busy for write cycles: 2740
7banks busy for read cycles: 421194
7banks busy for write cycles: 898
8banks busy for read cycles: 57848
8banks busy for write cycles: 365

CPU 0 Branch Prediction Accuracy: 94.9771% MPKI: 13.0224 Average ROB Occupancy at Mispredict: 41.6402
Branch types
NOT_BRANCH: 37037111 74.0742%
BRANCH_DIRECT_JUMP: 125745 0.25149%
BRANCH_INDIRECT: 22046 0.044092%
BRANCH_CONDITIONAL: 11639280 23.2786%
BRANCH_DIRECT_CALL: 323606 0.647212%
BRANCH_INDIRECT_CALL: 264324 0.528648%
BRANCH_RETURN: 587930 1.17586%
BRANCH_OTHER: 0 0%

DRAM PAGES: 1048576
Allocated PAGES: 11043
