
*** ChampSim Multicore Out-of-Order Simulator ***

Warmup Instructions: 50000000
Simulation Instructions: 50000000
Number of CPUs: 1
LLC sets: 2048
LLC ways: 16
Off-chip DRAM Size: 4096 MB Channels: 1 Width: 64-bit Data Rate: 6400 MT/s
CPU 0 runs traces/SPEC-CPU2017/623.xalancbmk_s-10B.champsimtrace.xz
.xz
CPU 0 Bimodal branch predictor
BTB has LRU replacement policy
ITLB has LRU replacement policy
DTLB has LRU replacement policy
STLB has LRU replacement policy
L1I has LRU replacement policy
L1D has LRU replacement policy
L2C has LRU replacement policy
LLC has LRU replacement policy
Heartbeat CPU 0 instructions: 10000001 cycles: 3228195 heartbeat IPC: 3.09771 cumulative IPC: 3.09771 (Simulation time: 0 hr 3 min 33 sec) 
Heartbeat CPU 0 instructions: 20000000 cycles: 6463512 heartbeat IPC: 3.09089 cumulative IPC: 3.09429 (Simulation time: 0 hr 7 min 8 sec) 
Heartbeat CPU 0 instructions: 30000001 cycles: 9713982 heartbeat IPC: 3.07648 cumulative IPC: 3.08833 (Simulation time: 0 hr 10 min 43 sec) 
Heartbeat CPU 0 instructions: 40000000 cycles: 12957836 heartbeat IPC: 3.08275 cumulative IPC: 3.08694 (Simulation time: 0 hr 14 min 16 sec) 
Heartbeat CPU 0 instructions: 50000000 cycles: 16245755 heartbeat IPC: 3.04144 cumulative IPC: 3.07773 (Simulation time: 0 hr 17 min 55 sec) 

Warmup complete CPU 0 instructions: 50000004 cycles: 16245756 (Simulation time: 0 hr 17 min 55 sec) 

Heartbeat CPU 0 instructions: 60000000 cycles: 53812225 heartbeat IPC: 0.266195 cumulative IPC: 0.266195 (Simulation time: 0 hr 18 min 49 sec) 
Heartbeat CPU 0 instructions: 70000000 cycles: 91707448 heartbeat IPC: 0.263885 cumulative IPC: 0.265035 (Simulation time: 0 hr 19 min 43 sec) 
Heartbeat CPU 0 instructions: 80000000 cycles: 130087222 heartbeat IPC: 0.260554 cumulative IPC: 0.263524 (Simulation time: 0 hr 20 min 37 sec) 
Heartbeat CPU 0 instructions: 90000000 cycles: 165733032 heartbeat IPC: 0.280538 cumulative IPC: 0.267581 (Simulation time: 0 hr 21 min 30 sec) 
Heartbeat CPU 0 instructions: 100000000 cycles: 203866901 heartbeat IPC: 0.262234 cumulative IPC: 0.266494 (Simulation time: 0 hr 22 min 24 sec) 
Finished CPU 0 instructions: 50000003 cycles: 187621179 cumulative IPC: 0.266494 (Simulation time: 0 hr 22 min 24 sec) 

ChampSim completed all CPUs

Region of Interest Statistics

CPU 0 cumulative IPC: 0.266494 instructions: 50000003 cycles: 187621179
ITLB TOTAL     ACCESS:    7900652  HIT:    7866743  MISS:      33909  HIT %:    99.5708  MISS %:   0.429192   MPKI: 0.67818
ITLB LOAD TRANSLATION ACCESS:    7900652  HIT:    7866743  MISS:      33909  HIT %:    99.5708  MISS %:   0.429192   MPKI: 0.67818
ITLB PREFETCH  REQUESTED:          0  ISSUED:          0  USEFUL:          0  USELESS:          0
ITLB USEFUL LOAD PREFETCHES:          0 PREFETCH ISSUED TO LOWER LEVEL:          0  ACCURACY: -nan
ITLB TIMELY PREFETCHES:          0 LATE PREFETCHES: 0 DROPPED PREFETCHES: 0
ITLB PREFETCHES SAME FILL-ORIGIN LEVEL: 0 DIFFERENT FILL-ORIGIN LEVEL: 0
ITLB AVERAGE MISS LATENCY: 18.0821 cycles
ITLB RQ	ACCESS:    9060762	FORWARD:          0	MERGED:    1151023	TO_CACHE:    7909739

DTLB TOTAL     ACCESS:   10294223  HIT:    9956902  MISS:     337321  HIT %:    96.7232  MISS %:     3.2768   MPKI: 6.74642
DTLB LOAD TRANSLATION ACCESS:   10294223  HIT:    9956902  MISS:     337321  HIT %:    96.7232  MISS %:     3.2768   MPKI: 6.74642
DTLB PREFETCH  REQUESTED:          0  ISSUED:          0  USEFUL:          0  USELESS:          0
DTLB USEFUL LOAD PREFETCHES:          0 PREFETCH ISSUED TO LOWER LEVEL:          0  ACCURACY: -nan
DTLB TIMELY PREFETCHES:          0 LATE PREFETCHES: 0 DROPPED PREFETCHES: 0
DTLB PREFETCHES SAME FILL-ORIGIN LEVEL: 0 DIFFERENT FILL-ORIGIN LEVEL: 0
DTLB AVERAGE MISS LATENCY: 62.4322 cycles
DTLB RQ	ACCESS:   11403399	FORWARD:          0	MERGED:    1052655	TO_CACHE:   10350744

STLB TOTAL     ACCESS:    1472836  HIT:    1218097  MISS:     254739  HIT %:    82.7042  MISS %:    17.2958   MPKI: 5.09478
STLB LOAD TRANSLATION ACCESS:     371230  HIT:     130601  MISS:     240629  HIT %:    35.1806  MISS %:    64.8194   MPKI: 4.81258
STLB TRANSLATION FROM L1D PREFETCHER ACCESS:    1101606  HIT:    1087496  MISS:      14110  HIT %:    98.7191  MISS %:    1.28086   MPKI: 0.2822
STLB PREFETCH  REQUESTED:          0  ISSUED:          0  USEFUL:      13993  USELESS:        116
STLB USEFUL LOAD PREFETCHES:      13993 PREFETCH ISSUED TO LOWER LEVEL:          0  ACCURACY: inf
STLB TIMELY PREFETCHES:      13993 LATE PREFETCHES: 190 DROPPED PREFETCHES: 0
STLB PREFETCHES SAME FILL-ORIGIN LEVEL: 0 DIFFERENT FILL-ORIGIN LEVEL: 0
STLB AVERAGE MISS LATENCY: 80.6236 cycles
STLB RQ	ACCESS:    1905470	FORWARD:          0	MERGED:     432059	TO_CACHE:    1473411

STLB Hit, L1D data hit: 0
STLB Hit, L2C data hit: 0
STLB Hit, LLC data hit: 0
STLB Hit, LLC data miss: 0
STLB STLB hints to L2: 0
L1D TOTAL     ACCESS:   12549147  HIT:   10512849  MISS:    2036298  HIT %:    83.7734  MISS %:    16.2266   MPKI: 40.726
L1D LOAD      ACCESS:    8966549  HIT:    7830187  MISS:    1136362  HIT %:    87.3267  MISS %:    12.6733   MPKI: 22.7272
L1D RFO       ACCESS:    2332423  HIT:    2310974  MISS:      21449  HIT %:    99.0804  MISS %:   0.919602   MPKI: 0.42898
L1D PREFETCH  ACCESS:    1250175  HIT:     371688  MISS:     878487  HIT %:    29.7309  MISS %:    70.2691   MPKI: 17.5697
AGUS PREFETCH L1 MISS: 0
L1D PREFETCH  REQUESTED:    3071528  ISSUED:    3069021  USEFUL:     211762  USELESS:     666723
L1D USEFUL LOAD PREFETCHES:     211762 PREFETCH ISSUED TO LOWER LEVEL:     931841  ACCURACY: 22.7251
L1D TIMELY PREFETCHES:     211762 LATE PREFETCHES: 52812 DROPPED PREFETCHES: 0
L1D PREFETCHES SAME FILL-ORIGIN LEVEL: 931841 DIFFERENT FILL-ORIGIN LEVEL: 0
L1D AVERAGE MISS LATENCY: 138.077 cycles
L1D RQ	ACCESS:   14679169	FORWARD:          0	MERGED:    5609775	TO_CACHE:    9009721
L1D WQ	ACCESS:    2425925	FORWARD:      59677	MERGED:      32247	TO_CACHE:    2393678
L1D PQ	ACCESS:    1534781	FORWARD:          0	MERGED:        537	TO_CACHE:    1534240

L1D UNIQUE REGIONS ACCESSED: 0
L1D REGIONS CONFLICTS: 0
L1D Cross Page Prefetch Requests: 63979
L1D Same Page Prefetch Requests: 3053027
L1D ROI Sum of L1D PQ occupancy: 24231065
L1D PREFETCHES PUSHED FROM L2C: 0
L1I TOTAL     ACCESS:    9009226  HIT:    8833195  MISS:     176031  HIT %:    98.0461  MISS %:     1.9539   MPKI: 3.52062
L1I LOAD      ACCESS:    9009226  HIT:    8833195  MISS:     176031  HIT %:    98.0461  MISS %:     1.9539   MPKI: 3.52062
L1I PREFETCH  REQUESTED:          0  ISSUED:          0  USEFUL:          0  USELESS:          0
L1I USEFUL LOAD PREFETCHES:          0 PREFETCH ISSUED TO LOWER LEVEL:          0  ACCURACY: -nan
L1I TIMELY PREFETCHES:          0 LATE PREFETCHES: 0 DROPPED PREFETCHES: 0
L1I PREFETCHES SAME FILL-ORIGIN LEVEL: 0 DIFFERENT FILL-ORIGIN LEVEL: 0
L1I AVERAGE MISS LATENCY: 39.7305 cycles
L1I RQ	ACCESS:   15173403	FORWARD:          0	MERGED:    6112641	TO_CACHE:    9060762

BTB TOTAL     ACCESS:    8240388  HIT:    8162326  MISS:      78062  HIT %:    99.0527  MISS %:    0.94731   MPKI: 1.56124
BTB BRANCH_DIRECT_JUMP	ACCESS:     125745  HIT:     125105  MISS:        640
BTB BRANCH_INDIRECT	ACCESS:      22046  HIT:       8847  MISS:      13199
BTB BRANCH_CONDITIONAL	ACCESS:    6916737  HIT:    6913889  MISS:       2848
BTB BRANCH_DIRECT_CALL	ACCESS:     323606  HIT:     322531  MISS:       1075
BTB BRANCH_INDIRECT_CALL	ACCESS:     264324  HIT:     261288  MISS:       3036
BTB BRANCH_RETURN	ACCESS:     587930  HIT:     530666  MISS:      57264
BTB BRANCH_OTHER ACCESS:          0  HIT:          0  MISS:          0

L2C TOTAL     ACCESS:    2510959  HIT:     536368  MISS:    1974591  HIT %:    21.3611  MISS %:    78.6389   MPKI: 39.4918
L2C LOAD      ACCESS:    1259579  HIT:     228285  MISS:    1031294  HIT %:    18.1239  MISS %:    81.8761   MPKI: 20.6259
L2C DATA LOAD MPKI: 19.8406
L2C INSTRUCTION LOAD MPKI: 0.78524
L2C RFO       ACCESS:      20900  HIT:       7889  MISS:      13011  HIT %:    37.7464  MISS %:    62.2536   MPKI: 0.26022
L2C PREFETCH  ACCESS:     931841  HIT:      63095  MISS:     868746  HIT %:      6.771  MISS %:     93.229   MPKI: 17.3749
AGUS PREFETCH L1 MISS: 0
L2C DATA PREFETCH MPKI: 17.3749
L2C INSTRUCTION PREFETCH MPKI: 0
L2C WRITEBACK ACCESS:      42716  HIT:      42501  MISS:        215  HIT %:    99.4967  MISS %:   0.503324   MPKI: 0.0043
L2C LOAD TRANSLATION ACCESS:     241040  HIT:     188284  MISS:      52756  HIT %:    78.1132  MISS %:    21.8868   MPKI: 1.05512
L2C TRANSLATION FROM L1D PREFETCHER ACCESS:      14883  HIT:       6314  MISS:       8569  HIT %:    42.4242  MISS %:    57.5758   MPKI: 0.17138
L2C PREFETCH  REQUESTED:          0  ISSUED:          0  USEFUL:      16217  USELESS:     861071
L2C USEFUL LOAD PREFETCHES:      16217 PREFETCH ISSUED TO LOWER LEVEL:     868746  ACCURACY: 1.86671
L2C TIMELY PREFETCHES:      16217 LATE PREFETCHES: 0 DROPPED PREFETCHES: 0
L2C PREFETCHES SAME FILL-ORIGIN LEVEL: 0 DIFFERENT FILL-ORIGIN LEVEL: 0
L2C AVERAGE MISS LATENCY: 135.22 cycles
L2C RQ	ACCESS:    1536411	FORWARD:          0	MERGED:          0	TO_CACHE:    1536402
L2C WQ	ACCESS:      42716	FORWARD:          9	MERGED:          0	TO_CACHE:      42716
L2C PQ	ACCESS:     931841	FORWARD:          0	MERGED:          0	TO_CACHE:     931841

L2C Instructions Evicting Data 37335
L2C Translations Evicting Data 58551
L2C Data Evicting Data 1777890
L2C Instructions Evicting Instructions 895
L2C Translations Evicting Instructions 1111
L2C Data Evicting Instructions 37273
L2C Instructions Evicting Translations 1032
L2C Translations Evicting Translations 1663
L2C Data Evicting Translations 58626
L2C Dense regions hint from L2: 0
PSCL5 TOTAL     ACCESS:     254739  HIT:     254739  MISS:          0  HIT %:        100  MISS %:          0   MPKI: 0
PSCL5 LOAD TRANSLATION ACCESS:     240439  HIT:     240439  MISS:          0  HIT %:        100  MISS %:          0   MPKI: 0
PSCL5 TRANSLATION FROM L1D PREFETCHER ACCESS:      14300  HIT:      14300  MISS:          0  HIT %:        100  MISS %:          0   MPKI: 0
PSCL5 PREFETCH  REQUESTED:          0  ISSUED:          0  USEFUL:          0  USELESS:          0
PSCL5 USEFUL LOAD PREFETCHES:          0 PREFETCH ISSUED TO LOWER LEVEL:          0  ACCURACY: -nan
PSCL5 TIMELY PREFETCHES:          0 LATE PREFETCHES: 0 DROPPED PREFETCHES: 0
PSCL5 PREFETCHES SAME FILL-ORIGIN LEVEL: 0 DIFFERENT FILL-ORIGIN LEVEL: 0

PSCL4 TOTAL     ACCESS:     254739  HIT:     254739  MISS:          0  HIT %:        100  MISS %:          0   MPKI: 0
PSCL4 LOAD TRANSLATION ACCESS:     240439  HIT:     240439  MISS:          0  HIT %:        100  MISS %:          0   MPKI: 0
PSCL4 TRANSLATION FROM L1D PREFETCHER ACCESS:      14300  HIT:      14300  MISS:          0  HIT %:        100  MISS %:          0   MPKI: 0
PSCL4 PREFETCH  REQUESTED:          0  ISSUED:          0  USEFUL:          0  USELESS:          0
PSCL4 USEFUL LOAD PREFETCHES:          0 PREFETCH ISSUED TO LOWER LEVEL:          0  ACCURACY: -nan
PSCL4 TIMELY PREFETCHES:          0 LATE PREFETCHES: 0 DROPPED PREFETCHES: 0
PSCL4 PREFETCHES SAME FILL-ORIGIN LEVEL: 0 DIFFERENT FILL-ORIGIN LEVEL: 0

PSCL3 TOTAL     ACCESS:     254739  HIT:     254739  MISS:          0  HIT %:        100  MISS %:          0   MPKI: 0
PSCL3 LOAD TRANSLATION ACCESS:     240439  HIT:     240439  MISS:          0  HIT %:        100  MISS %:          0   MPKI: 0
PSCL3 TRANSLATION FROM L1D PREFETCHER ACCESS:      14300  HIT:      14300  MISS:          0  HIT %:        100  MISS %:          0   MPKI: 0
PSCL3 PREFETCH  REQUESTED:          0  ISSUED:          0  USEFUL:          0  USELESS:          0
PSCL3 USEFUL LOAD PREFETCHES:          0 PREFETCH ISSUED TO LOWER LEVEL:          0  ACCURACY: -nan
PSCL3 TIMELY PREFETCHES:          0 LATE PREFETCHES: 0 DROPPED PREFETCHES: 0
PSCL3 PREFETCHES SAME FILL-ORIGIN LEVEL: 0 DIFFERENT FILL-ORIGIN LEVEL: 0

PSCL2 TOTAL     ACCESS:     254739  HIT:     253555  MISS:       1184  HIT %:    99.5352  MISS %:   0.464789   MPKI: 0.02368
PSCL2 LOAD TRANSLATION ACCESS:     241022  HIT:     239838  MISS:       1184  HIT %:    99.5088  MISS %:   0.491241   MPKI: 0.02368
PSCL2 TRANSLATION FROM L1D PREFETCHER ACCESS:      13717  HIT:      13717  MISS:          0  HIT %:        100  MISS %:          0   MPKI: 0
PSCL2 PREFETCH  REQUESTED:          0  ISSUED:          0  USEFUL:          0  USELESS:          0
PSCL2 USEFUL LOAD PREFETCHES:          0 PREFETCH ISSUED TO LOWER LEVEL:          0  ACCURACY: -nan
PSCL2 TIMELY PREFETCHES:          0 LATE PREFETCHES: 0 DROPPED PREFETCHES: 0
PSCL2 PREFETCHES SAME FILL-ORIGIN LEVEL: 0 DIFFERENT FILL-ORIGIN LEVEL: 0

LLC TOTAL     ACCESS:    1997487  HIT:     141966  MISS:    1855521  HIT %:    7.10723  MISS %:    92.8928   MPKI: 37.1104
LLC LOAD      ACCESS:    1031294  HIT:      65602  MISS:     965692  HIT %:    6.36113  MISS %:    93.6389   MPKI: 19.3138
LLC RFO       ACCESS:      13011  HIT:       1701  MISS:      11310  HIT %:    13.0736  MISS %:    86.9264   MPKI: 0.2262
LLC PREFETCH  ACCESS:     868746  HIT:      49476  MISS:     819270  HIT %:    5.69511  MISS %:    94.3049   MPKI: 16.3854
AGUS PREFETCH L1 MISS: 0
LLC WRITEBACK ACCESS:      23111  HIT:      22984  MISS:        127  HIT %:    99.4505  MISS %:   0.549522   MPKI: 0.00254
LLC LOAD TRANSLATION ACCESS:      52756  HIT:       1928  MISS:      50828  HIT %:    3.65456  MISS %:    96.3454   MPKI: 1.01656
LLC TRANSLATION FROM L1D PREFETCHER ACCESS:       8569  HIT:        275  MISS:       8294  HIT %:    3.20924  MISS %:    96.7908   MPKI: 0.16588
LLC PREFETCH  REQUESTED:          0  ISSUED:          0  USEFUL:       8371  USELESS:     819291
LLC USEFUL LOAD PREFETCHES:       8371 PREFETCH ISSUED TO LOWER LEVEL:     819270  ACCURACY: 1.02176
LLC TIMELY PREFETCHES:       8371 LATE PREFETCHES: 0 DROPPED PREFETCHES: 0
LLC PREFETCHES SAME FILL-ORIGIN LEVEL: 0 DIFFERENT FILL-ORIGIN LEVEL: 0
LLC AVERAGE MISS LATENCY: 111.974 cycles
LLC RQ	ACCESS:    1105630	FORWARD:          0	MERGED:          0	TO_CACHE:    1105630
LLC WQ	ACCESS:      23111	FORWARD:          0	MERGED:          0	TO_CACHE:      23111
LLC PQ	ACCESS:     868746	FORWARD:          0	MERGED:          0	TO_CACHE:     868746

LLC Dense regions hint to LLC: 0

RAW hits: 62892
Loads Generated: 14742061
Loads sent to L1D: 14679169
Stores Generated: 2425922
Stores sent to L1D: 2425925
Major fault: 0 Minor fault: 11043
Allocated PAGES: 11043

stream: 
stream:times selected: 3415171
stream:pref_filled: 1492683
stream:pref_useful: 293032
stream:pref_late: 101785
stream:misses: 618675
stream:misses_by_poll: 0

CS: 
CS:times selected: 109294
CS:pref_filled: 103337
CS:pref_useful: 71070
CS:pref_late: 944
CS:misses: 15874
CS:misses_by_poll: 79

CPLX: 
CPLX:times selected: 3274156
CPLX:pref_filled: 134799
CPLX:pref_useful: 19867
CPLX:pref_late: 895
CPLX:misses: 1678202
CPLX:misses_by_poll: 112

ISB: 
ISB:times selected:90511
ISB:pref_filled: 47158
ISB:pref_useful: 41602
ISB:pref_late: 1269
ISB:misses: 39056
ISB:misses_by_poll: 16

NL_L1: 
NL:times selected: 7544
NL:pref_filled: 3090
NL:pref_useful: 699
NL:pref_late: 367
NL:misses: 4969
NL:misses_by_poll: 0

total selections: 6896676
total_filled: 878487
total_useful: 211762
total_late: 107605
total_polluted: 207
total_misses_after_warmup: 1179533
conflicts: 1931411

test: 2201996

DRAM Statistics
 CHANNEL 0
 RQ ROW_BUFFER_HIT:    1231563  ROW_BUFFER_MISS:     623831
 DBUS_CONGESTED:        435
 WQ ROW_BUFFER_HIT:       1105  ROW_BUFFER_MISS:      17267  FULL:          0

 AVG_CONGESTED_CYCLE: 4
 All warmup complete: 2
Channel 0 Bank busy for read cycles: 0
Channel 0 Bank busy for write cycles: 0
Channel 0
Rank 0
0banks busy for read cycles: 108211794
0banks busy for write cycles: 14312
1banks busy for read cycles: 34466664
1banks busy for write cycles: 2555733
2banks busy for read cycles: 21638387
2banks busy for write cycles: 491723
3banks busy for read cycles: 9753362
3banks busy for write cycles: 95905
4banks busy for read cycles: 5416558
4banks busy for write cycles: 18700
5banks busy for read cycles: 3564155
5banks busy for write cycles: 2192
6banks busy for read cycles: 1125235
6banks busy for write cycles: 210
7banks busy for read cycles: 215498
7banks busy for write cycles: 131
8banks busy for read cycles: 50621
8banks busy for write cycles: 0

CPU 0 Branch Prediction Accuracy: 94.9771% MPKI: 13.0224 Average ROB Occupancy at Mispredict: 41.4681
Branch types
NOT_BRANCH: 37037111 74.0742%
BRANCH_DIRECT_JUMP: 125745 0.25149%
BRANCH_INDIRECT: 22046 0.044092%
BRANCH_CONDITIONAL: 11639280 23.2786%
BRANCH_DIRECT_CALL: 323606 0.647212%
BRANCH_INDIRECT_CALL: 264324 0.528648%
BRANCH_RETURN: 587930 1.17586%
BRANCH_OTHER: 0 0%

DRAM PAGES: 1048576
Allocated PAGES: 11043
