
*** ChampSim Multicore Out-of-Order Simulator ***

Warmup Instructions: 50000000
Simulation Instructions: 50000000
Number of CPUs: 1
LLC sets: 2048
LLC ways: 16
Off-chip DRAM Size: 4096 MB Channels: 1 Width: 64-bit Data Rate: 6400 MT/s
CPU 0 runs traces/SPEC-CPU2017/429.mcf-184B.champsimtrace.xz
.xz
CPU 0 Bimodal branch predictor
BTB has LRU replacement policy
ITLB has LRU replacement policy
DTLB has LRU replacement policy
STLB has LRU replacement policy
L1I has LRU replacement policy
L1D has LRU replacement policy
L2C has LRU replacement policy
LLC has LRU replacement policy
Heartbeat CPU 0 instructions: 10000003 cycles: 3817502 heartbeat IPC: 2.61951 cumulative IPC: 2.61951 (Simulation time: 0 hr 7 min 41 sec) 
Heartbeat CPU 0 instructions: 20000000 cycles: 7603875 heartbeat IPC: 2.64105 cumulative IPC: 2.63024 (Simulation time: 0 hr 15 min 48 sec) 
Heartbeat CPU 0 instructions: 30000001 cycles: 11374797 heartbeat IPC: 2.65187 cumulative IPC: 2.63741 (Simulation time: 0 hr 24 min 11 sec) 
Heartbeat CPU 0 instructions: 40000000 cycles: 15149725 heartbeat IPC: 2.64906 cumulative IPC: 2.64031 (Simulation time: 0 hr 32 min 30 sec) 
Heartbeat CPU 0 instructions: 50000000 cycles: 18933508 heartbeat IPC: 2.64286 cumulative IPC: 2.64082 (Simulation time: 0 hr 40 min 55 sec) 

Warmup complete CPU 0 instructions: 50000004 cycles: 18933509 (Simulation time: 0 hr 40 min 55 sec) 

Heartbeat CPU 0 instructions: 60000000 cycles: 131098586 heartbeat IPC: 0.0891543 cumulative IPC: 0.0891543 (Simulation time: 0 hr 46 min 14 sec) 
Heartbeat CPU 0 instructions: 70000000 cycles: 247219987 heartbeat IPC: 0.0861168 cumulative IPC: 0.0876092 (Simulation time: 0 hr 51 min 15 sec) 
Heartbeat CPU 0 instructions: 80000000 cycles: 361375818 heartbeat IPC: 0.0875996 cumulative IPC: 0.087606 (Simulation time: 0 hr 56 min 28 sec) 
Heartbeat CPU 0 instructions: 90000000 cycles: 462634013 heartbeat IPC: 0.0987574 cumulative IPC: 0.0901509 (Simulation time: 1 hr 1 min 1 sec) 
Heartbeat CPU 0 instructions: 100000000 cycles: 567535857 heartbeat IPC: 0.0953272 cumulative IPC: 0.0911407 (Simulation time: 1 hr 5 min 41 sec) 
Finished CPU 0 instructions: 50000000 cycles: 548602358 cumulative IPC: 0.0911407 (Simulation time: 1 hr 5 min 41 sec) 

ChampSim completed all CPUs

Region of Interest Statistics

CPU 0 cumulative IPC: 0.0911407 instructions: 50000000 cycles: 548602358
ITLB TOTAL     ACCESS:    9252531  HIT:    9252531  MISS:          0  HIT %:        100  MISS %:          0   MPKI: 0
ITLB LOAD TRANSLATION ACCESS:    9252531  HIT:    9252531  MISS:          0  HIT %:        100  MISS %:          0   MPKI: 0
ITLB PREFETCH  REQUESTED:          0  ISSUED:          0  USEFUL:          0  USELESS:          0
ITLB USEFUL LOAD PREFETCHES:          0 PREFETCH ISSUED TO LOWER LEVEL:          0  ACCURACY: -nan
ITLB TIMELY PREFETCHES:          0 LATE PREFETCHES: 0 DROPPED PREFETCHES: 0
ITLB PREFETCHES SAME FILL-ORIGIN LEVEL: 0 DIFFERENT FILL-ORIGIN LEVEL: 0
ITLB AVERAGE MISS LATENCY: -nan cycles
ITLB RQ	ACCESS:   10144072	FORWARD:          0	MERGED:     891541	TO_CACHE:    9252531

DTLB TOTAL     ACCESS:   11084091  HIT:    5400831  MISS:    5683260  HIT %:     48.726  MISS %:     51.274   MPKI: 113.665
DTLB LOAD TRANSLATION ACCESS:   11084091  HIT:    5400831  MISS:    5683260  HIT %:     48.726  MISS %:     51.274   MPKI: 113.665
DTLB PREFETCH  REQUESTED:          0  ISSUED:          0  USEFUL:          0  USELESS:          0
DTLB USEFUL LOAD PREFETCHES:          0 PREFETCH ISSUED TO LOWER LEVEL:          0  ACCURACY: -nan
DTLB TIMELY PREFETCHES:          0 LATE PREFETCHES: 0 DROPPED PREFETCHES: 0
DTLB PREFETCHES SAME FILL-ORIGIN LEVEL: 0 DIFFERENT FILL-ORIGIN LEVEL: 0
DTLB AVERAGE MISS LATENCY: 14.8071 cycles
DTLB RQ	ACCESS:   11969557	FORWARD:          0	MERGED:     874038	TO_CACHE:   11095519

STLB TOTAL     ACCESS:   16492440  HIT:   15883904  MISS:     608536  HIT %:    96.3102  MISS %:    3.68979   MPKI: 12.1707
STLB LOAD TRANSLATION ACCESS:    5683260  HIT:    5477348  MISS:     205912  HIT %:    96.3769  MISS %:    3.62313   MPKI: 4.11824
STLB TRANSLATION FROM L1D PREFETCHER ACCESS:   10809180  HIT:   10406556  MISS:     402624  HIT %:    96.2752  MISS %:    3.72483   MPKI: 8.05248
STLB PREFETCH  REQUESTED:          0  ISSUED:          0  USEFUL:     306958  USELESS:      95650
STLB USEFUL LOAD PREFETCHES:     306958 PREFETCH ISSUED TO LOWER LEVEL:          0  ACCURACY: inf
STLB TIMELY PREFETCHES:     306958 LATE PREFETCHES: 1594 DROPPED PREFETCHES: 0
STLB PREFETCHES SAME FILL-ORIGIN LEVEL: 0 DIFFERENT FILL-ORIGIN LEVEL: 0
STLB AVERAGE MISS LATENCY: 214.207 cycles
STLB RQ	ACCESS:   18676240	FORWARD:          0	MERGED:    2181045	TO_CACHE:   16495195

STLB Hit, L1D data hit: 0
STLB Hit, L2C data hit: 0
STLB Hit, LLC data hit: 0
STLB Hit, LLC data miss: 0
STLB STLB hints to L2: 0
L1D TOTAL     ACCESS:   24751617  HIT:    6991873  MISS:   17759744  HIT %:    28.2481  MISS %:    71.7519   MPKI: 355.195
L1D LOAD      ACCESS:   10743850  HIT:    4916931  MISS:    5826919  HIT %:    45.7651  MISS %:    54.2349   MPKI: 116.538
L1D RFO       ACCESS:    1198669  HIT:    1150354  MISS:      48315  HIT %:    95.9693  MISS %:    4.03072   MPKI: 0.9663
L1D PREFETCH  ACCESS:   12809098  HIT:     924588  MISS:   11884510  HIT %:    7.21821  MISS %:    92.7818   MPKI: 237.69
AGUS PREFETCH L1 MISS: 0
L1D PREFETCH  REQUESTED:   26339852  ISSUED:   25986136  USEFUL:     829549  USELESS:   11054901
L1D USEFUL LOAD PREFETCHES:     829549 PREFETCH ISSUED TO LOWER LEVEL:   11932300  ACCURACY: 6.95213
L1D TIMELY PREFETCHES:     829549 LATE PREFETCHES: 43579 DROPPED PREFETCHES: 0
L1D PREFETCHES SAME FILL-ORIGIN LEVEL: 11932300 DIFFERENT FILL-ORIGIN LEVEL: 0
L1D AVERAGE MISS LATENCY: 105.007 cycles
L1D RQ	ACCESS:   15993052	FORWARD:          0	MERGED:    5222452	TO_CACHE:   10764577
L1D WQ	ACCESS:    1282255	FORWARD:       6193	MERGED:      77275	TO_CACHE:    1204980
L1D PQ	ACCESS:   12993156	FORWARD:          0	MERGED:          6	TO_CACHE:   12992980

L1D UNIQUE REGIONS ACCESSED: 0
L1D REGIONS CONFLICTS: 0
L1D Cross Page Prefetch Requests: 7043542
L1D Same Page Prefetch Requests: 16761708
L1D ROI Sum of L1D PQ occupancy: 370058574
L1D PREFETCHES PUSHED FROM L2C: 0
L1I TOTAL     ACCESS:   10144072  HIT:   10144072  MISS:          0  HIT %:        100  MISS %:          0   MPKI: 0
L1I LOAD      ACCESS:   10144072  HIT:   10144072  MISS:          0  HIT %:        100  MISS %:          0   MPKI: 0
L1I PREFETCH  REQUESTED:          0  ISSUED:          0  USEFUL:          0  USELESS:          0
L1I USEFUL LOAD PREFETCHES:          0 PREFETCH ISSUED TO LOWER LEVEL:          0  ACCURACY: -nan
L1I TIMELY PREFETCHES:          0 LATE PREFETCHES: 0 DROPPED PREFETCHES: 0
L1I PREFETCHES SAME FILL-ORIGIN LEVEL: 0 DIFFERENT FILL-ORIGIN LEVEL: 0
L1I AVERAGE MISS LATENCY: -nan cycles
L1I RQ	ACCESS:   13992206	FORWARD:          0	MERGED:    3848134	TO_CACHE:   10144072

BTB TOTAL     ACCESS:   10746617  HIT:   10743468  MISS:       3149  HIT %:    99.9707  MISS %:  0.0293022   MPKI: 0.06298
BTB BRANCH_DIRECT_JUMP	ACCESS:     328173  HIT:     328155  MISS:         18
BTB BRANCH_INDIRECT	ACCESS:          0  HIT:          0  MISS:          0
BTB BRANCH_CONDITIONAL	ACCESS:   10354958  HIT:   10354903  MISS:         55
BTB BRANCH_DIRECT_CALL	ACCESS:      31743  HIT:      31737  MISS:          6
BTB BRANCH_INDIRECT_CALL	ACCESS:          0  HIT:          0  MISS:          0
BTB BRANCH_RETURN	ACCESS:      31743  HIT:      28673  MISS:       3070
BTB BRANCH_OTHER ACCESS:          0  HIT:          0  MISS:          0

L2C TOTAL     ACCESS:   19178746  HIT:    7027952  MISS:   12150794  HIT %:    36.6445  MISS %:    63.3555   MPKI: 243.016
L2C LOAD      ACCESS:    5783321  HIT:    2183002  MISS:    3600319  HIT %:    37.7465  MISS %:    62.2535   MPKI: 72.0064
L2C DATA LOAD MPKI: 72.0064
L2C INSTRUCTION LOAD MPKI: 0
L2C RFO       ACCESS:      44090  HIT:      16096  MISS:      27994  HIT %:    36.5071  MISS %:    63.4929   MPKI: 0.55988
L2C PREFETCH  ACCESS:   11932306  HIT:    3759450  MISS:    8172856  HIT %:    31.5065  MISS %:    68.4935   MPKI: 163.457
AGUS PREFETCH L1 MISS: 0
L2C DATA PREFETCH MPKI: 163.457
L2C INSTRUCTION PREFETCH MPKI: 0
L2C WRITEBACK ACCESS:     624098  HIT:     624090  MISS:          8  HIT %:    99.9987  MISS %: 0.00128185   MPKI: 0.00016
L2C LOAD TRANSLATION ACCESS:     273947  HIT:     123952  MISS:     149995  HIT %:    45.2467  MISS %:    54.7533   MPKI: 2.9999
L2C TRANSLATION FROM L1D PREFETCHER ACCESS:     520984  HIT:     321362  MISS:     199622  HIT %:    61.6837  MISS %:    38.3163   MPKI: 3.99244
L2C PREFETCH  REQUESTED:          0  ISSUED:          0  USEFUL:    1176175  USELESS:    7195623
L2C USEFUL LOAD PREFETCHES:    1176175 PREFETCH ISSUED TO LOWER LEVEL:    8172857  ACCURACY: 14.3912
L2C TIMELY PREFETCHES:    1176175 LATE PREFETCHES: 0 DROPPED PREFETCHES: 0
L2C PREFETCHES SAME FILL-ORIGIN LEVEL: 0 DIFFERENT FILL-ORIGIN LEVEL: 0
L2C AVERAGE MISS LATENCY: 135.15 cycles
L2C RQ	ACCESS:    6622360	FORWARD:          0	MERGED:          0	TO_CACHE:    6622341
L2C WQ	ACCESS:     624098	FORWARD:         26	MERGED:          0	TO_CACHE:     624098
L2C PQ	ACCESS:   11932300	FORWARD:          0	MERGED:          0	TO_CACHE:   11932293

L2C Instructions Evicting Data 0
L2C Translations Evicting Data 331064
L2C Data Evicting Data 11470128
L2C Instructions Evicting Instructions 0
L2C Translations Evicting Instructions 0
L2C Data Evicting Instructions 0
L2C Instructions Evicting Translations 0
L2C Translations Evicting Translations 18553
L2C Data Evicting Translations 331041
L2C Dense regions hint from L2: 0
PSCL5 TOTAL     ACCESS:     608536  HIT:     608536  MISS:          0  HIT %:        100  MISS %:          0   MPKI: 0
PSCL5 LOAD TRANSLATION ACCESS:     204318  HIT:     204318  MISS:          0  HIT %:        100  MISS %:          0   MPKI: 0
PSCL5 TRANSLATION FROM L1D PREFETCHER ACCESS:     404218  HIT:     404218  MISS:          0  HIT %:        100  MISS %:          0   MPKI: 0
PSCL5 PREFETCH  REQUESTED:          0  ISSUED:          0  USEFUL:          0  USELESS:          0
PSCL5 USEFUL LOAD PREFETCHES:          0 PREFETCH ISSUED TO LOWER LEVEL:          0  ACCURACY: -nan
PSCL5 TIMELY PREFETCHES:          0 LATE PREFETCHES: 0 DROPPED PREFETCHES: 0
PSCL5 PREFETCHES SAME FILL-ORIGIN LEVEL: 0 DIFFERENT FILL-ORIGIN LEVEL: 0

PSCL4 TOTAL     ACCESS:     608536  HIT:     608536  MISS:          0  HIT %:        100  MISS %:          0   MPKI: 0
PSCL4 LOAD TRANSLATION ACCESS:     204318  HIT:     204318  MISS:          0  HIT %:        100  MISS %:          0   MPKI: 0
PSCL4 TRANSLATION FROM L1D PREFETCHER ACCESS:     404218  HIT:     404218  MISS:          0  HIT %:        100  MISS %:          0   MPKI: 0
PSCL4 PREFETCH  REQUESTED:          0  ISSUED:          0  USEFUL:          0  USELESS:          0
PSCL4 USEFUL LOAD PREFETCHES:          0 PREFETCH ISSUED TO LOWER LEVEL:          0  ACCURACY: -nan
PSCL4 TIMELY PREFETCHES:          0 LATE PREFETCHES: 0 DROPPED PREFETCHES: 0
PSCL4 PREFETCHES SAME FILL-ORIGIN LEVEL: 0 DIFFERENT FILL-ORIGIN LEVEL: 0

PSCL3 TOTAL     ACCESS:     608536  HIT:     608536  MISS:          0  HIT %:        100  MISS %:          0   MPKI: 0
PSCL3 LOAD TRANSLATION ACCESS:     204318  HIT:     204318  MISS:          0  HIT %:        100  MISS %:          0   MPKI: 0
PSCL3 TRANSLATION FROM L1D PREFETCHER ACCESS:     404218  HIT:     404218  MISS:          0  HIT %:        100  MISS %:          0   MPKI: 0
PSCL3 PREFETCH  REQUESTED:          0  ISSUED:          0  USEFUL:          0  USELESS:          0
PSCL3 USEFUL LOAD PREFETCHES:          0 PREFETCH ISSUED TO LOWER LEVEL:          0  ACCURACY: -nan
PSCL3 TIMELY PREFETCHES:          0 LATE PREFETCHES: 0 DROPPED PREFETCHES: 0
PSCL3 PREFETCHES SAME FILL-ORIGIN LEVEL: 0 DIFFERENT FILL-ORIGIN LEVEL: 0

PSCL2 TOTAL     ACCESS:     608536  HIT:     422141  MISS:     186395  HIT %:    69.3699  MISS %:    30.6301   MPKI: 3.7279
PSCL2 LOAD TRANSLATION ACCESS:     321084  HIT:     134689  MISS:     186395  HIT %:    41.9482  MISS %:    58.0518   MPKI: 3.7279
PSCL2 TRANSLATION FROM L1D PREFETCHER ACCESS:     287452  HIT:     287452  MISS:          0  HIT %:        100  MISS %:          0   MPKI: 0
PSCL2 PREFETCH  REQUESTED:          0  ISSUED:          0  USEFUL:          0  USELESS:          0
PSCL2 USEFUL LOAD PREFETCHES:          0 PREFETCH ISSUED TO LOWER LEVEL:          0  ACCURACY: -nan
PSCL2 TIMELY PREFETCHES:          0 LATE PREFETCHES: 0 DROPPED PREFETCHES: 0
PSCL2 PREFETCHES SAME FILL-ORIGIN LEVEL: 0 DIFFERENT FILL-ORIGIN LEVEL: 0

LLC TOTAL     ACCESS:   12644586  HIT:    6671128  MISS:    5973458  HIT %:    52.7588  MISS %:    47.2412   MPKI: 119.469
LLC LOAD      ACCESS:    3600318  HIT:    1520146  MISS:    2080172  HIT %:    42.2225  MISS %:    57.7775   MPKI: 41.6034
LLC RFO       ACCESS:      27994  HIT:      10324  MISS:      17670  HIT %:    36.8793  MISS %:    63.1207   MPKI: 0.3534
LLC PREFETCH  ACCESS:    8172855  HIT:    4479675  MISS:    3693180  HIT %:    54.8116  MISS %:    45.1884   MPKI: 73.8636
AGUS PREFETCH L1 MISS: 0
LLC WRITEBACK ACCESS:     493802  HIT:     492706  MISS:       1096  HIT %:     99.778  MISS %:   0.221951   MPKI: 0.02192
LLC LOAD TRANSLATION ACCESS:     149995  HIT:      82765  MISS:      67230  HIT %:    55.1785  MISS %:    44.8215   MPKI: 1.3446
LLC TRANSLATION FROM L1D PREFETCHER ACCESS:     199622  HIT:      85512  MISS:     114110  HIT %:     42.837  MISS %:     57.163   MPKI: 2.2822
LLC PREFETCH  REQUESTED:          0  ISSUED:          0  USEFUL:     327643  USELESS:    3478383
LLC USEFUL LOAD PREFETCHES:     327643 PREFETCH ISSUED TO LOWER LEVEL:    3693180  ACCURACY: 8.87157
LLC TIMELY PREFETCHES:     327643 LATE PREFETCHES: 0 DROPPED PREFETCHES: 0
LLC PREFETCHES SAME FILL-ORIGIN LEVEL: 0 DIFFERENT FILL-ORIGIN LEVEL: 0
LLC AVERAGE MISS LATENCY: 213.63 cycles
LLC RQ	ACCESS:    3977929	FORWARD:          0	MERGED:          0	TO_CACHE:    3977928
LLC WQ	ACCESS:     493802	FORWARD:          3	MERGED:          0	TO_CACHE:     493802
LLC PQ	ACCESS:    8172857	FORWARD:          0	MERGED:          0	TO_CACHE:    8172855

LLC Dense regions hint to LLC: 0

RAW hits: 153638
Loads Generated: 16146693
Loads sent to L1D: 15993052
Stores Generated: 1282255
Stores sent to L1D: 1282255
Major fault: 0 Minor fault: 83728
Allocated PAGES: 83728

stream: 
stream:times selected: 19801662
stream:pref_reqs: 19142984
stream:pref_reqs_filtered_out: 5171589
stream:pref_filled: 11715295
stream:pref_useful: 120389
stream:pref_late: 18144
stream:misses: 864720
stream:misses_by_poll: 0

CS: 
CS:times selected: 4936206
CS:pref_reqs: 4937122
CS:pref_reqs_filtered_out: 1106024
CS:pref_filled: 2817012
CS:pref_useful: 1237
CS:pref_late: 29
CS:misses: 103798
CS:misses_by_poll: 3496

CPLX: 
CPLX:times selected: 19587516
CPLX:pref_reqs: 5256856
CPLX:pref_reqs_filtered_out: 4375480
CPLX:pref_filled: 711731
CPLX:pref_useful: 5611
CPLX:pref_late: 108
CPLX:misses: 4515011
CPLX:misses_by_poll: 1008

ISB: 
ISB:times selected:7828898
ISB:pref_reqs: 10624135
ISB:pref_reqs_filtered_out: 714554
ISB:pref_filled: 6699891
ISB:pref_useful: 1017689
ISB:pref_late: 76930
ISB:misses: 7210425
ISB:misses_by_poll: 29822
ISB:Stream end: 7476188
ISB:No Prediction: 11972768 60.4634
ISB:No translation: 3294621196 16638.1
ISB:Predictions: 7178997 36.2545

NL_L1: 
NL:times selected: 73000
NL:pref_reqs: 73000
NL:pref_reqs_filtered_out: 7406
NL:pref_filled: 48957
NL:pref_useful: 242
NL:pref_late: 35
NL:misses: 46285
NL:misses_by_poll: 0

total selections: 52227282
total_filled: 11884510
total_useful: 829549
total_late: 99860
total_polluted: 34326
total_misses_after_warmup: 5847648
conflicts: 77838

test: 15173058

DRAM Statistics
 CHANNEL 0
 RQ ROW_BUFFER_HIT:     150413  ROW_BUFFER_MISS:    5821581
 DBUS_CONGESTED:        194
 WQ ROW_BUFFER_HIT:     229819  ROW_BUFFER_MISS:     175575  FULL:          0

 AVG_CONGESTED_CYCLE: 4
 All warmup complete: 2
Channel 0 Bank busy for read cycles: 0
Channel 0 Bank busy for write cycles: 0
Channel 0
Rank 0
0banks busy for read cycles: 105547281
0banks busy for write cycles: 47587
1banks busy for read cycles: 146481060
1banks busy for write cycles: 12946059
2banks busy for read cycles: 132980530
2banks busy for write cycles: 3144624
3banks busy for read cycles: 70243866
3banks busy for write cycles: 1510999
4banks busy for read cycles: 35119307
4banks busy for write cycles: 1047096
5banks busy for read cycles: 14878030
5banks busy for write cycles: 852300
6banks busy for read cycles: 5370391
6banks busy for write cycles: 1153196
7banks busy for read cycles: 1350525
7banks busy for write cycles: 3787746
8banks busy for read cycles: 165320
8banks busy for write cycles: 11976442

CPU 0 Branch Prediction Accuracy: 88.5978% MPKI: 27.4129 Average ROB Occupancy at Mispredict: 19.9172
Branch types
NOT_BRANCH: 37978914 75.9578%
BRANCH_DIRECT_JUMP: 328173 0.656346%
BRANCH_INDIRECT: 0 0%
BRANCH_CONDITIONAL: 11629169 23.2583%
BRANCH_DIRECT_CALL: 31743 0.063486%
BRANCH_INDIRECT_CALL: 0 0%
BRANCH_RETURN: 31743 0.063486%
BRANCH_OTHER: 0 0%

DRAM PAGES: 1048576
Allocated PAGES: 83728
