
*** ChampSim Multicore Out-of-Order Simulator ***

Warmup Instructions: 50000000
Simulation Instructions: 50000000
Number of CPUs: 1
LLC sets: 2048
LLC ways: 16
Off-chip DRAM Size: 4096 MB Channels: 1 Width: 64-bit Data Rate: 6400 MT/s
CPU 0 runs traces/SPEC-CPU2017/450.soplex-247B.champsimtrace.xz
.xz
CPU 0 Bimodal branch predictor
BTB has LRU replacement policy
ITLB has LRU replacement policy
DTLB has LRU replacement policy
STLB has LRU replacement policy
L1I has LRU replacement policy
L1D has LRU replacement policy
L2C has LRU replacement policy
LLC has LRU replacement policy
Heartbeat CPU 0 instructions: 10000002 cycles: 3569140 heartbeat IPC: 2.8018 cumulative IPC: 2.8018 (Simulation time: 0 hr 1 min 45 sec) 
Heartbeat CPU 0 instructions: 20000000 cycles: 6828829 heartbeat IPC: 3.06778 cumulative IPC: 2.92876 (Simulation time: 0 hr 3 min 24 sec) 
Heartbeat CPU 0 instructions: 30000000 cycles: 10069016 heartbeat IPC: 3.08624 cumulative IPC: 2.97944 (Simulation time: 0 hr 5 min 16 sec) 
Heartbeat CPU 0 instructions: 40000000 cycles: 13308976 heartbeat IPC: 3.08646 cumulative IPC: 3.00549 (Simulation time: 0 hr 6 min 58 sec) 
Heartbeat CPU 0 instructions: 50000000 cycles: 16540357 heartbeat IPC: 3.09465 cumulative IPC: 3.02291 (Simulation time: 0 hr 8 min 41 sec) 

Warmup complete CPU 0 instructions: 50000004 cycles: 16540358 (Simulation time: 0 hr 8 min 41 sec) 

Heartbeat CPU 0 instructions: 60000000 cycles: 42571429 heartbeat IPC: 0.384156 cumulative IPC: 0.384156 (Simulation time: 0 hr 10 min 22 sec) 
Heartbeat CPU 0 instructions: 70000002 cycles: 70327111 heartbeat IPC: 0.360287 cumulative IPC: 0.371839 (Simulation time: 0 hr 12 min 9 sec) 
Heartbeat CPU 0 instructions: 80000000 cycles: 97332979 heartbeat IPC: 0.37029 cumulative IPC: 0.371321 (Simulation time: 0 hr 13 min 57 sec) 
Heartbeat CPU 0 instructions: 90000002 cycles: 124882303 heartbeat IPC: 0.362985 cumulative IPC: 0.369201 (Simulation time: 0 hr 15 min 55 sec) 
Heartbeat CPU 0 instructions: 100000000 cycles: 150790272 heartbeat IPC: 0.385982 cumulative IPC: 0.37244 (Simulation time: 0 hr 17 min 41 sec) 
Finished CPU 0 instructions: 50000000 cycles: 134249922 cumulative IPC: 0.37244 (Simulation time: 0 hr 17 min 41 sec) 

ChampSim completed all CPUs

Region of Interest Statistics

CPU 0 cumulative IPC: 0.37244 instructions: 50000000 cycles: 134249922
ITLB TOTAL     ACCESS:    8620562  HIT:    8620562  MISS:          0  HIT %:        100  MISS %:          0   MPKI: 0
ITLB LOAD TRANSLATION ACCESS:    8620562  HIT:    8620562  MISS:          0  HIT %:        100  MISS %:          0   MPKI: 0
ITLB PREFETCH  REQUESTED:          0  ISSUED:          0  USEFUL:          0  USELESS:          0
ITLB USEFUL LOAD PREFETCHES:          0 PREFETCH ISSUED TO LOWER LEVEL:          0  ACCURACY: -nan
ITLB TIMELY PREFETCHES:          0 LATE PREFETCHES: 0 DROPPED PREFETCHES: 0
ITLB PREFETCHES SAME FILL-ORIGIN LEVEL: 0 DIFFERENT FILL-ORIGIN LEVEL: 0
ITLB AVERAGE MISS LATENCY: -nan cycles
ITLB RQ	ACCESS:    9632583	FORWARD:          0	MERGED:    1012022	TO_CACHE:    8620561

DTLB TOTAL     ACCESS:    9578721  HIT:    9304909  MISS:     273812  HIT %:    97.1415  MISS %:    2.85854   MPKI: 5.47624
DTLB LOAD TRANSLATION ACCESS:    9578721  HIT:    9304909  MISS:     273812  HIT %:    97.1415  MISS %:    2.85854   MPKI: 5.47624
DTLB PREFETCH  REQUESTED:          0  ISSUED:          0  USEFUL:          0  USELESS:          0
DTLB USEFUL LOAD PREFETCHES:          0 PREFETCH ISSUED TO LOWER LEVEL:          0  ACCURACY: -nan
DTLB TIMELY PREFETCHES:          0 LATE PREFETCHES: 0 DROPPED PREFETCHES: 0
DTLB PREFETCHES SAME FILL-ORIGIN LEVEL: 0 DIFFERENT FILL-ORIGIN LEVEL: 0
DTLB AVERAGE MISS LATENCY: 13.2422 cycles
DTLB RQ	ACCESS:   10856115	FORWARD:          0	MERGED:    1233552	TO_CACHE:    9622563

STLB TOTAL     ACCESS:    1847003  HIT:    1804394  MISS:      42609  HIT %:    97.6931  MISS %:    2.30693   MPKI: 0.85218
STLB LOAD TRANSLATION ACCESS:     273812  HIT:     265782  MISS:       8030  HIT %:    97.0673  MISS %:    2.93267   MPKI: 0.1606
STLB TRANSLATION FROM L1D PREFETCHER ACCESS:    1573191  HIT:    1538612  MISS:      34579  HIT %:     97.802  MISS %:    2.19802   MPKI: 0.69158
STLB PREFETCH  REQUESTED:          0  ISSUED:          0  USEFUL:      34059  USELESS:        528
STLB USEFUL LOAD PREFETCHES:      34059 PREFETCH ISSUED TO LOWER LEVEL:          0  ACCURACY: inf
STLB TIMELY PREFETCHES:      34059 LATE PREFETCHES: 194 DROPPED PREFETCHES: 0
STLB PREFETCHES SAME FILL-ORIGIN LEVEL: 0 DIFFERENT FILL-ORIGIN LEVEL: 0
STLB AVERAGE MISS LATENCY: 132.842 cycles
STLB RQ	ACCESS:    2899038	FORWARD:          0	MERGED:    1051245	TO_CACHE:    1847793

STLB Hit, L1D data hit: 0
STLB Hit, L2C data hit: 0
STLB Hit, LLC data hit: 0
STLB Hit, LLC data miss: 0
STLB STLB hints to L2: 0
L1D TOTAL     ACCESS:   12077765  HIT:    8392579  MISS:    3685186  HIT %:    69.4878  MISS %:    30.5122   MPKI: 73.7037
L1D LOAD      ACCESS:    7487546  HIT:    6078239  MISS:    1409307  HIT %:     81.178  MISS %:     18.822   MPKI: 28.1861
L1D RFO       ACCESS:    2176854  HIT:    1880281  MISS:     296573  HIT %:    86.3761  MISS %:    13.6239   MPKI: 5.93146
L1D PREFETCH  ACCESS:    2413365  HIT:     434059  MISS:    1979306  HIT %:    17.9856  MISS %:    82.0144   MPKI: 39.5861
AGUS PREFETCH L1 MISS: 0
L1D PREFETCH  REQUESTED:    5645605  ISSUED:    5250713  USEFUL:     899245  USELESS:    1080114
L1D USEFUL LOAD PREFETCHES:     899245 PREFETCH ISSUED TO LOWER LEVEL:    2068273  ACCURACY: 43.4781
L1D TIMELY PREFETCHES:     899245 LATE PREFETCHES: 88965 DROPPED PREFETCHES: 0
L1D PREFETCHES SAME FILL-ORIGIN LEVEL: 2068273 DIFFERENT FILL-ORIGIN LEVEL: 0
L1D AVERAGE MISS LATENCY: 150.791 cycles
L1D RQ	ACCESS:   14858579	FORWARD:          0	MERGED:    7037970	TO_CACHE:    7816269
L1D WQ	ACCESS:    3057587	FORWARD:       4581	MERGED:      17741	TO_CACHE:    3039846
L1D PQ	ACCESS:    2625487	FORWARD:          0	MERGED:         20	TO_CACHE:    2625226

L1D UNIQUE REGIONS ACCESSED: 0
L1D REGIONS CONFLICTS: 0
L1D Cross Page Prefetch Requests: 1752059
L1D Same Page Prefetch Requests: 3703885
L1D ROI Sum of L1D PQ occupancy: 62927208
L1D PREFETCHES PUSHED FROM L2C: 0
L1I TOTAL     ACCESS:    9632550  HIT:    9632440  MISS:        110  HIT %:    99.9989  MISS %: 0.00114196   MPKI: 0.0022
L1I LOAD      ACCESS:    9632550  HIT:    9632440  MISS:        110  HIT %:    99.9989  MISS %: 0.00114196   MPKI: 0.0022
L1I PREFETCH  REQUESTED:          0  ISSUED:          0  USEFUL:          0  USELESS:          0
L1I USEFUL LOAD PREFETCHES:          0 PREFETCH ISSUED TO LOWER LEVEL:          0  ACCURACY: -nan
L1I TIMELY PREFETCHES:          0 LATE PREFETCHES: 0 DROPPED PREFETCHES: 0
L1I PREFETCHES SAME FILL-ORIGIN LEVEL: 0 DIFFERENT FILL-ORIGIN LEVEL: 0
L1I AVERAGE MISS LATENCY: 235.1 cycles
L1I RQ	ACCESS:   13919144	FORWARD:          0	MERGED:    4286561	TO_CACHE:    9632583

BTB TOTAL     ACCESS:    6809335  HIT:    6808747  MISS:        588  HIT %:    99.9914  MISS %:  0.0086352   MPKI: 0.01176
BTB BRANCH_DIRECT_JUMP	ACCESS:      51581  HIT:      51508  MISS:         73
BTB BRANCH_INDIRECT	ACCESS:         18  HIT:         11  MISS:          7
BTB BRANCH_CONDITIONAL	ACCESS:    6754130  HIT:    6753926  MISS:        204
BTB BRANCH_DIRECT_CALL	ACCESS:       1703  HIT:       1632  MISS:         71
BTB BRANCH_INDIRECT_CALL	ACCESS:        102  HIT:         81  MISS:         21
BTB BRANCH_RETURN	ACCESS:       1801  HIT:       1589  MISS:        212
BTB BRANCH_OTHER ACCESS:          0  HIT:          0  MISS:          0

L2C TOTAL     ACCESS:    4807237  HIT:    2325324  MISS:    2481913  HIT %:    48.3713  MISS %:    51.6287   MPKI: 49.6383
L2C LOAD      ACCESS:    1320302  HIT:     489924  MISS:     830378  HIT %:     37.107  MISS %:     62.893   MPKI: 16.6076
L2C DATA LOAD MPKI: 16.6054
L2C INSTRUCTION LOAD MPKI: 0.0022
L2C RFO       ACCESS:     296565  HIT:      25636  MISS:     270929  HIT %:    8.64431  MISS %:    91.3557   MPKI: 5.41858
L2C PREFETCH  ACCESS:    2068198  HIT:     699146  MISS:    1369052  HIT %:    33.8046  MISS %:    66.1954   MPKI: 27.381
AGUS PREFETCH L1 MISS: 0
L2C DATA PREFETCH MPKI: 27.381
L2C INSTRUCTION PREFETCH MPKI: 0
L2C WRITEBACK ACCESS:    1079333  HIT:    1079293  MISS:         40  HIT %:    99.9963  MISS %: 0.00370599   MPKI: 0.0008
L2C LOAD TRANSLATION ACCESS:       8012  HIT:       5895  MISS:       2117  HIT %:    73.5771  MISS %:    26.4229   MPKI: 0.04234
L2C TRANSLATION FROM L1D PREFETCHER ACCESS:      34827  HIT:      25430  MISS:       9397  HIT %:    73.0181  MISS %:    26.9819   MPKI: 0.18794
L2C PREFETCH  REQUESTED:          0  ISSUED:          0  USEFUL:     148414  USELESS:    1234745
L2C USEFUL LOAD PREFETCHES:     148414 PREFETCH ISSUED TO LOWER LEVEL:    1369052  ACCURACY: 10.8406
L2C TIMELY PREFETCHES:     148414 LATE PREFETCHES: 0 DROPPED PREFETCHES: 0
L2C PREFETCHES SAME FILL-ORIGIN LEVEL: 0 DIFFERENT FILL-ORIGIN LEVEL: 0
L2C AVERAGE MISS LATENCY: 202.224 cycles
L2C RQ	ACCESS:    1659866	FORWARD:          0	MERGED:          0	TO_CACHE:    1659710
L2C WQ	ACCESS:    1079334	FORWARD:        231	MERGED:          0	TO_CACHE:    1079334
L2C PQ	ACCESS:    2068273	FORWARD:          0	MERGED:          0	TO_CACHE:    2068198

L2C Instructions Evicting Data 110
L2C Translations Evicting Data 11436
L2C Data Evicting Data 2458713
L2C Instructions Evicting Instructions 0
L2C Translations Evicting Instructions 0
L2C Data Evicting Instructions 107
L2C Instructions Evicting Translations 0
L2C Translations Evicting Translations 78
L2C Data Evicting Translations 11429
L2C Dense regions hint from L2: 0
PSCL5 TOTAL     ACCESS:      42609  HIT:      42609  MISS:          0  HIT %:        100  MISS %:          0   MPKI: 0
PSCL5 LOAD TRANSLATION ACCESS:       7836  HIT:       7836  MISS:          0  HIT %:        100  MISS %:          0   MPKI: 0
PSCL5 TRANSLATION FROM L1D PREFETCHER ACCESS:      34773  HIT:      34773  MISS:          0  HIT %:        100  MISS %:          0   MPKI: 0
PSCL5 PREFETCH  REQUESTED:          0  ISSUED:          0  USEFUL:          0  USELESS:          0
PSCL5 USEFUL LOAD PREFETCHES:          0 PREFETCH ISSUED TO LOWER LEVEL:          0  ACCURACY: -nan
PSCL5 TIMELY PREFETCHES:          0 LATE PREFETCHES: 0 DROPPED PREFETCHES: 0
PSCL5 PREFETCHES SAME FILL-ORIGIN LEVEL: 0 DIFFERENT FILL-ORIGIN LEVEL: 0

PSCL4 TOTAL     ACCESS:      42609  HIT:      42609  MISS:          0  HIT %:        100  MISS %:          0   MPKI: 0
PSCL4 LOAD TRANSLATION ACCESS:       7836  HIT:       7836  MISS:          0  HIT %:        100  MISS %:          0   MPKI: 0
PSCL4 TRANSLATION FROM L1D PREFETCHER ACCESS:      34773  HIT:      34773  MISS:          0  HIT %:        100  MISS %:          0   MPKI: 0
PSCL4 PREFETCH  REQUESTED:          0  ISSUED:          0  USEFUL:          0  USELESS:          0
PSCL4 USEFUL LOAD PREFETCHES:          0 PREFETCH ISSUED TO LOWER LEVEL:          0  ACCURACY: -nan
PSCL4 TIMELY PREFETCHES:          0 LATE PREFETCHES: 0 DROPPED PREFETCHES: 0
PSCL4 PREFETCHES SAME FILL-ORIGIN LEVEL: 0 DIFFERENT FILL-ORIGIN LEVEL: 0

PSCL3 TOTAL     ACCESS:      42609  HIT:      42609  MISS:          0  HIT %:        100  MISS %:          0   MPKI: 0
PSCL3 LOAD TRANSLATION ACCESS:       7836  HIT:       7836  MISS:          0  HIT %:        100  MISS %:          0   MPKI: 0
PSCL3 TRANSLATION FROM L1D PREFETCHER ACCESS:      34773  HIT:      34773  MISS:          0  HIT %:        100  MISS %:          0   MPKI: 0
PSCL3 PREFETCH  REQUESTED:          0  ISSUED:          0  USEFUL:          0  USELESS:          0
PSCL3 USEFUL LOAD PREFETCHES:          0 PREFETCH ISSUED TO LOWER LEVEL:          0  ACCURACY: -nan
PSCL3 TIMELY PREFETCHES:          0 LATE PREFETCHES: 0 DROPPED PREFETCHES: 0
PSCL3 PREFETCHES SAME FILL-ORIGIN LEVEL: 0 DIFFERENT FILL-ORIGIN LEVEL: 0

PSCL2 TOTAL     ACCESS:      42609  HIT:      42375  MISS:        234  HIT %:    99.4508  MISS %:    0.54918   MPKI: 0.00468
PSCL2 LOAD TRANSLATION ACCESS:       7890  HIT:       7656  MISS:        234  HIT %:    97.0342  MISS %:    2.96578   MPKI: 0.00468
PSCL2 TRANSLATION FROM L1D PREFETCHER ACCESS:      34719  HIT:      34719  MISS:          0  HIT %:        100  MISS %:          0   MPKI: 0
PSCL2 PREFETCH  REQUESTED:          0  ISSUED:          0  USEFUL:          0  USELESS:          0
PSCL2 USEFUL LOAD PREFETCHES:          0 PREFETCH ISSUED TO LOWER LEVEL:          0  ACCURACY: -nan
PSCL2 TIMELY PREFETCHES:          0 LATE PREFETCHES: 0 DROPPED PREFETCHES: 0
PSCL2 PREFETCHES SAME FILL-ORIGIN LEVEL: 0 DIFFERENT FILL-ORIGIN LEVEL: 0

LLC TOTAL     ACCESS:    3269311  HIT:    1306995  MISS:    1962316  HIT %:    39.9777  MISS %:    60.0223   MPKI: 39.2463
LLC LOAD      ACCESS:     830369  HIT:     180301  MISS:     650068  HIT %:    21.7134  MISS %:    78.2866   MPKI: 13.0014
LLC RFO       ACCESS:     270927  HIT:      70624  MISS:     200303  HIT %:    26.0675  MISS %:    73.9325   MPKI: 4.00606
LLC PREFETCH  ACCESS:    1369040  HIT:     267145  MISS:    1101895  HIT %:    19.5133  MISS %:    80.4867   MPKI: 22.0379
AGUS PREFETCH L1 MISS: 0
LLC WRITEBACK ACCESS:     787461  HIT:     787257  MISS:        204  HIT %:    99.9741  MISS %:   0.025906   MPKI: 0.00408
LLC LOAD TRANSLATION ACCESS:       2117  HIT:        138  MISS:       1979  HIT %:    6.51866  MISS %:    93.4813   MPKI: 0.03958
LLC TRANSLATION FROM L1D PREFETCHER ACCESS:       9397  HIT:       1530  MISS:       7867  HIT %:    16.2818  MISS %:    83.7182   MPKI: 0.15734
LLC PREFETCH  REQUESTED:          0  ISSUED:          0  USEFUL:      81035  USELESS:    1040249
LLC USEFUL LOAD PREFETCHES:      81035 PREFETCH ISSUED TO LOWER LEVEL:    1101895  ACCURACY: 7.35415
LLC TIMELY PREFETCHES:      81035 LATE PREFETCHES: 0 DROPPED PREFETCHES: 0
LLC PREFETCHES SAME FILL-ORIGIN LEVEL: 0 DIFFERENT FILL-ORIGIN LEVEL: 0
LLC AVERAGE MISS LATENCY: 217.821 cycles
LLC RQ	ACCESS:    1112825	FORWARD:          0	MERGED:          0	TO_CACHE:    1112814
LLC WQ	ACCESS:     787462	FORWARD:         23	MERGED:          0	TO_CACHE:     787462
LLC PQ	ACCESS:    1369052	FORWARD:          0	MERGED:          0	TO_CACHE:    1369040

LLC Dense regions hint to LLC: 0

RAW hits: 149958
Loads Generated: 15008540
Loads sent to L1D: 14858579
Stores Generated: 3057587
Stores sent to L1D: 3057587
Major fault: 0 Minor fault: 7959
Allocated PAGES: 7959

stream: 
stream:times selected: 2755448
stream:pref_reqs: 2687521
stream:pref_reqs_filtered_out: 359686
stream:pref_filled: 1491011
stream:pref_useful: 466232
stream:pref_late: 81496
stream:misses: 70638
stream:misses_by_poll: 0

CS: 
CS:times selected: 117085
CS:pref_reqs: 340788
CS:pref_reqs_filtered_out: 77689
CS:pref_filled: 204453
CS:pref_useful: 169629
CS:pref_late: 6778
CS:misses: 37577
CS:misses_by_poll: 84

CPLX: 
CPLX:times selected: 2624115
CPLX:pref_reqs: 171115
CPLX:pref_reqs_filtered_out: 51082
CPLX:pref_filled: 91433
CPLX:pref_useful: 59496
CPLX:pref_late: 3434
CPLX:misses: 379916
CPLX:misses_by_poll: 27

ISB: 
ISB:times selected:2310149
ISB:pref_reqs: 4370495
ISB:pref_reqs_filtered_out: 770644
ISB:pref_filled: 2384184
ISB:pref_useful: 1095980
ISB:pref_late: 44674
ISB:misses: 2619872
ISB:misses_by_poll: 11334
ISB:Stream end: 1988615
ISB:No Prediction: 445304 16.1608
ISB:No translation: 2021646552 73368.9
ISB:Predictions: 2927924 106.259

NL_L1: 
NL:times selected: 10400
NL:pref_reqs: 10400
NL:pref_reqs_filtered_out: 1498
NL:pref_filled: 5868
NL:pref_useful: 1620
NL:pref_late: 170
NL:misses: 11155
NL:misses_by_poll: 1

total selections: 7817197
total_filled: 1979306
total_useful: 899245
total_late: 142174
total_polluted: 11446
total_misses_after_warmup: 1738029
conflicts: 15858

test: 1028034

DRAM Statistics
 CHANNEL 0
 RQ ROW_BUFFER_HIT:     592489  ROW_BUFFER_MISS:    1369328
 DBUS_CONGESTED:        324
 WQ ROW_BUFFER_HIT:     172950  ROW_BUFFER_MISS:     468216  FULL:          0

 AVG_CONGESTED_CYCLE: 4
 All warmup complete: 2
Channel 0 Bank busy for read cycles: 0
Channel 0 Bank busy for write cycles: 0
Channel 0
Rank 0
0banks busy for read cycles: 31981976
0banks busy for write cycles: 52837
1banks busy for read cycles: 20653306
1banks busy for write cycles: 6486324
2banks busy for read cycles: 14508126
2banks busy for write cycles: 3277323
3banks busy for read cycles: 10404035
3banks busy for write cycles: 1963499
4banks busy for read cycles: 8619767
4banks busy for write cycles: 1343819
5banks busy for read cycles: 7224635
5banks busy for write cycles: 1070015
6banks busy for read cycles: 6245242
6banks busy for write cycles: 922691
7banks busy for read cycles: 4402719
7banks busy for write cycles: 1887213
8banks busy for read cycles: 2467222
8banks busy for write cycles: 10739174

CPU 0 Branch Prediction Accuracy: 94.9774% MPKI: 9.10312 Average ROB Occupancy at Mispredict: 47.6008
Branch types
NOT_BRANCH: 40937758 81.8755%
BRANCH_DIRECT_JUMP: 51581 0.103162%
BRANCH_INDIRECT: 18 3.6e-05%
BRANCH_CONDITIONAL: 9006939 18.0139%
BRANCH_DIRECT_CALL: 1703 0.003406%
BRANCH_INDIRECT_CALL: 102 0.000204%
BRANCH_RETURN: 1801 0.003602%
BRANCH_OTHER: 0 0%

DRAM PAGES: 1048576
Allocated PAGES: 7959
