
*** ChampSim Multicore Out-of-Order Simulator ***

Warmup Instructions: 50000000
Simulation Instructions: 50000000
Number of CPUs: 1
LLC sets: 2048
LLC ways: 16
Off-chip DRAM Size: 4096 MB Channels: 1 Width: 64-bit Data Rate: 6400 MT/s
CPU 0 runs traces/SPEC-CPU2017/471.omnetpp-188B.champsimtrace.xz
.xz
CPU 0 Bimodal branch predictor
BTB has LRU replacement policy
ITLB has LRU replacement policy
DTLB has LRU replacement policy
STLB has LRU replacement policy
L1I has LRU replacement policy
L1D has LRU replacement policy
L2C has LRU replacement policy
LLC has LRU replacement policy
Heartbeat CPU 0 instructions: 10000001 cycles: 3263155 heartbeat IPC: 3.06452 cumulative IPC: 3.06452 (Simulation time: 0 hr 1 min 3 sec) 
Heartbeat CPU 0 instructions: 20000000 cycles: 6485240 heartbeat IPC: 3.10358 cumulative IPC: 3.08393 (Simulation time: 0 hr 2 min 3 sec) 
Heartbeat CPU 0 instructions: 30000000 cycles: 9729769 heartbeat IPC: 3.08211 cumulative IPC: 3.08332 (Simulation time: 0 hr 3 min 6 sec) 
Heartbeat CPU 0 instructions: 40000000 cycles: 12965233 heartbeat IPC: 3.09075 cumulative IPC: 3.08517 (Simulation time: 0 hr 4 min 9 sec) 
Heartbeat CPU 0 instructions: 50000003 cycles: 16187766 heartbeat IPC: 3.10315 cumulative IPC: 3.08875 (Simulation time: 0 hr 5 min 10 sec) 

Warmup complete CPU 0 instructions: 50000003 cycles: 16187766 (Simulation time: 0 hr 5 min 10 sec) 

Heartbeat CPU 0 instructions: 60000000 cycles: 51881962 heartbeat IPC: 0.280158 cumulative IPC: 0.280158 (Simulation time: 0 hr 6 min 12 sec) 
Heartbeat CPU 0 instructions: 70000001 cycles: 86379676 heartbeat IPC: 0.289874 cumulative IPC: 0.284933 (Simulation time: 0 hr 7 min 15 sec) 
Heartbeat CPU 0 instructions: 80000000 cycles: 121278196 heartbeat IPC: 0.286545 cumulative IPC: 0.285468 (Simulation time: 0 hr 8 min 21 sec) 
Heartbeat CPU 0 instructions: 90000003 cycles: 156075646 heartbeat IPC: 0.287377 cumulative IPC: 0.285943 (Simulation time: 0 hr 9 min 25 sec) 
Heartbeat CPU 0 instructions: 100000000 cycles: 191263298 heartbeat IPC: 0.284191 cumulative IPC: 0.285591 (Simulation time: 0 hr 10 min 32 sec) 
Finished CPU 0 instructions: 50000000 cycles: 175075541 cumulative IPC: 0.285591 (Simulation time: 0 hr 10 min 32 sec) 

ChampSim completed all CPUs

Region of Interest Statistics

CPU 0 cumulative IPC: 0.285591 instructions: 50000000 cycles: 175075541
ITLB TOTAL     ACCESS:    8716690  HIT:    8699487  MISS:      17203  HIT %:    99.8026  MISS %:   0.197357   MPKI: 0.34406
ITLB LOAD TRANSLATION ACCESS:    8716690  HIT:    8699487  MISS:      17203  HIT %:    99.8026  MISS %:   0.197357   MPKI: 0.34406
ITLB PREFETCH  REQUESTED:          0  ISSUED:          0  USEFUL:          0  USELESS:          0
ITLB USEFUL LOAD PREFETCHES:          0 PREFETCH ISSUED TO LOWER LEVEL:          0  ACCURACY: -nan
ITLB TIMELY PREFETCHES:          0 LATE PREFETCHES: 0 DROPPED PREFETCHES: 0
ITLB PREFETCHES SAME FILL-ORIGIN LEVEL: 0 DIFFERENT FILL-ORIGIN LEVEL: 0
ITLB AVERAGE MISS LATENCY: 11.9572 cycles
ITLB RQ	ACCESS:    9805536	FORWARD:          0	MERGED:    1081230	TO_CACHE:    8724306

DTLB TOTAL     ACCESS:   14690491  HIT:   13732774  MISS:     957717  HIT %:    93.4807  MISS %:     6.5193   MPKI: 19.1543
DTLB LOAD TRANSLATION ACCESS:   14690491  HIT:   13732774  MISS:     957717  HIT %:    93.4807  MISS %:     6.5193   MPKI: 19.1543
DTLB PREFETCH  REQUESTED:          0  ISSUED:          0  USEFUL:          0  USELESS:          0
DTLB USEFUL LOAD PREFETCHES:          0 PREFETCH ISSUED TO LOWER LEVEL:          0  ACCURACY: -nan
DTLB TIMELY PREFETCHES:          0 LATE PREFETCHES: 0 DROPPED PREFETCHES: 0
DTLB PREFETCHES SAME FILL-ORIGIN LEVEL: 0 DIFFERENT FILL-ORIGIN LEVEL: 0
DTLB AVERAGE MISS LATENCY: 16.9918 cycles
DTLB RQ	ACCESS:   17851468	FORWARD:          0	MERGED:    3116211	TO_CACHE:   14735257

STLB TOTAL     ACCESS:    2146585  HIT:    1787161  MISS:     359424  HIT %:     83.256  MISS %:     16.744   MPKI: 7.18848
STLB LOAD TRANSLATION ACCESS:     974920  HIT:     867427  MISS:     107493  HIT %:    88.9742  MISS %:    11.0258   MPKI: 2.14986
STLB TRANSLATION FROM L1D PREFETCHER ACCESS:    1171665  HIT:     919734  MISS:     251931  HIT %:     78.498  MISS %:     21.502   MPKI: 5.03862
STLB PREFETCH  REQUESTED:          0  ISSUED:          0  USEFUL:     158804  USELESS:      92894
STLB USEFUL LOAD PREFETCHES:     158804 PREFETCH ISSUED TO LOWER LEVEL:          0  ACCURACY: inf
STLB TIMELY PREFETCHES:     158804 LATE PREFETCHES: 472 DROPPED PREFETCHES: 0
STLB PREFETCHES SAME FILL-ORIGIN LEVEL: 0 DIFFERENT FILL-ORIGIN LEVEL: 0
STLB AVERAGE MISS LATENCY: 106.489 cycles
STLB RQ	ACCESS:    2283298	FORWARD:          0	MERGED:     135010	TO_CACHE:    2148288

STLB Hit, L1D data hit: 0
STLB Hit, L2C data hit: 0
STLB Hit, LLC data hit: 0
STLB Hit, LLC data miss: 0
STLB STLB hints to L2: 0
L1D TOTAL     ACCESS:   18657532  HIT:   16811540  MISS:    1845992  HIT %:    90.1059  MISS %:    9.89408   MPKI: 36.9198
L1D LOAD      ACCESS:    9497894  HIT:    8878744  MISS:     619150  HIT %:    93.4812  MISS %:    6.51881   MPKI: 12.383
L1D RFO       ACCESS:    7900464  HIT:    7744397  MISS:     156067  HIT %:    98.0246  MISS %:    1.97542   MPKI: 3.12134
L1D PREFETCH  ACCESS:    1259174  HIT:     188399  MISS:    1070775  HIT %:    14.9621  MISS %:    85.0379   MPKI: 21.4155
AGUS PREFETCH L1 MISS: 0
L1D PREFETCH  REQUESTED:    2696191  ISSUED:    2616815  USEFUL:     437642  USELESS:     633213
L1D USEFUL LOAD PREFETCHES:     437642 PREFETCH ISSUED TO LOWER LEVEL:    1082539  ACCURACY: 40.4274
L1D TIMELY PREFETCHES:     437642 LATE PREFETCHES: 11086 DROPPED PREFETCHES: 0
L1D PREFETCHES SAME FILL-ORIGIN LEVEL: 1082539 DIFFERENT FILL-ORIGIN LEVEL: 0
L1D AVERAGE MISS LATENCY: 154.484 cycles
L1D RQ	ACCESS:   14079486	FORWARD:          0	MERGED:    4056966	TO_CACHE:    9569323
L1D WQ	ACCESS:    8476021	FORWARD:     453256	MERGED:     193876	TO_CACHE:    8282145
L1D PQ	ACCESS:    1308437	FORWARD:          0	MERGED:          0	TO_CACHE:    1308378

L1D UNIQUE REGIONS ACCESSED: 0
L1D REGIONS CONFLICTS: 0
L1D Cross Page Prefetch Requests: 1438245
L1D Same Page Prefetch Requests: 1018640
L1D ROI Sum of L1D PQ occupancy: 65390322
L1D PREFETCHES PUSHED FROM L2C: 0
L1I TOTAL     ACCESS:    9805238  HIT:    9803697  MISS:       1541  HIT %:    99.9843  MISS %:  0.0157161   MPKI: 0.03082
L1I LOAD      ACCESS:    9805238  HIT:    9803697  MISS:       1541  HIT %:    99.9843  MISS %:  0.0157161   MPKI: 0.03082
L1I PREFETCH  REQUESTED:          0  ISSUED:          0  USEFUL:          0  USELESS:          0
L1I USEFUL LOAD PREFETCHES:          0 PREFETCH ISSUED TO LOWER LEVEL:          0  ACCURACY: -nan
L1I TIMELY PREFETCHES:          0 LATE PREFETCHES: 0 DROPPED PREFETCHES: 0
L1I PREFETCHES SAME FILL-ORIGIN LEVEL: 0 DIFFERENT FILL-ORIGIN LEVEL: 0
L1I AVERAGE MISS LATENCY: 157.975 cycles
L1I RQ	ACCESS:   14759989	FORWARD:          0	MERGED:    4954453	TO_CACHE:    9805536

BTB TOTAL     ACCESS:   10008119  HIT:    9487971  MISS:     520148  HIT %:    94.8027  MISS %:    5.19726   MPKI: 10.403
BTB BRANCH_DIRECT_JUMP	ACCESS:     964405  HIT:     964243  MISS:        162
BTB BRANCH_INDIRECT	ACCESS:     140341  HIT:     116325  MISS:      24016
BTB BRANCH_CONDITIONAL	ACCESS:    5906166  HIT:    5905777  MISS:        389
BTB BRANCH_DIRECT_CALL	ACCESS:    1294152  HIT:    1293861  MISS:        291
BTB BRANCH_INDIRECT_CALL	ACCESS:     204449  HIT:     203146  MISS:       1303
BTB BRANCH_RETURN	ACCESS:    1498606  HIT:    1004619  MISS:     493987
BTB BRANCH_OTHER ACCESS:          0  HIT:          0  MISS:          0

L2C TOTAL     ACCESS:    2749563  HIT:    1179636  MISS:    1569927  HIT %:    42.9027  MISS %:    57.0973   MPKI: 31.3985
L2C LOAD      ACCESS:     609578  HIT:     181652  MISS:     427926  HIT %:    29.7996  MISS %:    70.2004   MPKI: 8.55852
L2C DATA LOAD MPKI: 8.53154
L2C INSTRUCTION LOAD MPKI: 0.02698
L2C RFO       ACCESS:     155388  HIT:      14222  MISS:     141166  HIT %:    9.15257  MISS %:    90.8474   MPKI: 2.82332
L2C PREFETCH  ACCESS:    1082519  HIT:     224788  MISS:     857731  HIT %:    20.7653  MISS %:    79.2347   MPKI: 17.1546
AGUS PREFETCH L1 MISS: 0
L2C DATA PREFETCH MPKI: 17.1546
L2C INSTRUCTION PREFETCH MPKI: 0
L2C WRITEBACK ACCESS:     506796  HIT:     505237  MISS:       1559  HIT %:    99.6924  MISS %:   0.307619   MPKI: 0.03118
L2C LOAD TRANSLATION ACCESS:     116459  HIT:      79369  MISS:      37090  HIT %:    68.1519  MISS %:    31.8481   MPKI: 0.7418
L2C TRANSLATION FROM L1D PREFETCHER ACCESS:     278823  HIT:     174368  MISS:     104455  HIT %:    62.5372  MISS %:    37.4628   MPKI: 2.0891
L2C PREFETCH  REQUESTED:          0  ISSUED:          0  USEFUL:     135772  USELESS:     826604
L2C USEFUL LOAD PREFETCHES:     135772 PREFETCH ISSUED TO LOWER LEVEL:     857731  ACCURACY: 15.8292
L2C TIMELY PREFETCHES:     135772 LATE PREFETCHES: 0 DROPPED PREFETCHES: 0
L2C PREFETCHES SAME FILL-ORIGIN LEVEL: 0 DIFFERENT FILL-ORIGIN LEVEL: 0
L2C AVERAGE MISS LATENCY: 171.229 cycles
L2C RQ	ACCESS:    1160276	FORWARD:          0	MERGED:          0	TO_CACHE:    1160248
L2C WQ	ACCESS:     506796	FORWARD:         48	MERGED:          0	TO_CACHE:     506796
L2C PQ	ACCESS:    1082539	FORWARD:          0	MERGED:          0	TO_CACHE:    1082519

L2C Instructions Evicting Data 1240
L2C Translations Evicting Data 128280
L2C Data Evicting Data 1295521
L2C Instructions Evicting Instructions 12
L2C Translations Evicting Instructions 99
L2C Data Evicting Instructions 1236
L2C Instructions Evicting Translations 97
L2C Translations Evicting Translations 13166
L2C Data Evicting Translations 128717
L2C Dense regions hint from L2: 0
PSCL5 TOTAL     ACCESS:     359424  HIT:     359424  MISS:          0  HIT %:        100  MISS %:          0   MPKI: 0
PSCL5 LOAD TRANSLATION ACCESS:     107021  HIT:     107021  MISS:          0  HIT %:        100  MISS %:          0   MPKI: 0
PSCL5 TRANSLATION FROM L1D PREFETCHER ACCESS:     252403  HIT:     252403  MISS:          0  HIT %:        100  MISS %:          0   MPKI: 0
PSCL5 PREFETCH  REQUESTED:          0  ISSUED:          0  USEFUL:          0  USELESS:          0
PSCL5 USEFUL LOAD PREFETCHES:          0 PREFETCH ISSUED TO LOWER LEVEL:          0  ACCURACY: -nan
PSCL5 TIMELY PREFETCHES:          0 LATE PREFETCHES: 0 DROPPED PREFETCHES: 0
PSCL5 PREFETCHES SAME FILL-ORIGIN LEVEL: 0 DIFFERENT FILL-ORIGIN LEVEL: 0

PSCL4 TOTAL     ACCESS:     359424  HIT:     359424  MISS:          0  HIT %:        100  MISS %:          0   MPKI: 0
PSCL4 LOAD TRANSLATION ACCESS:     107021  HIT:     107021  MISS:          0  HIT %:        100  MISS %:          0   MPKI: 0
PSCL4 TRANSLATION FROM L1D PREFETCHER ACCESS:     252403  HIT:     252403  MISS:          0  HIT %:        100  MISS %:          0   MPKI: 0
PSCL4 PREFETCH  REQUESTED:          0  ISSUED:          0  USEFUL:          0  USELESS:          0
PSCL4 USEFUL LOAD PREFETCHES:          0 PREFETCH ISSUED TO LOWER LEVEL:          0  ACCURACY: -nan
PSCL4 TIMELY PREFETCHES:          0 LATE PREFETCHES: 0 DROPPED PREFETCHES: 0
PSCL4 PREFETCHES SAME FILL-ORIGIN LEVEL: 0 DIFFERENT FILL-ORIGIN LEVEL: 0

PSCL3 TOTAL     ACCESS:     359424  HIT:     359424  MISS:          0  HIT %:        100  MISS %:          0   MPKI: 0
PSCL3 LOAD TRANSLATION ACCESS:     107021  HIT:     107021  MISS:          0  HIT %:        100  MISS %:          0   MPKI: 0
PSCL3 TRANSLATION FROM L1D PREFETCHER ACCESS:     252403  HIT:     252403  MISS:          0  HIT %:        100  MISS %:          0   MPKI: 0
PSCL3 PREFETCH  REQUESTED:          0  ISSUED:          0  USEFUL:          0  USELESS:          0
PSCL3 USEFUL LOAD PREFETCHES:          0 PREFETCH ISSUED TO LOWER LEVEL:          0  ACCURACY: -nan
PSCL3 TIMELY PREFETCHES:          0 LATE PREFETCHES: 0 DROPPED PREFETCHES: 0
PSCL3 PREFETCHES SAME FILL-ORIGIN LEVEL: 0 DIFFERENT FILL-ORIGIN LEVEL: 0

PSCL2 TOTAL     ACCESS:     359424  HIT:     323565  MISS:      35859  HIT %:    90.0232  MISS %:     9.9768   MPKI: 0.71718
PSCL2 LOAD TRANSLATION ACCESS:     133441  HIT:      97582  MISS:      35859  HIT %:    73.1274  MISS %:    26.8726   MPKI: 0.71718
PSCL2 TRANSLATION FROM L1D PREFETCHER ACCESS:     225983  HIT:     225983  MISS:          0  HIT %:        100  MISS %:          0   MPKI: 0
PSCL2 PREFETCH  REQUESTED:          0  ISSUED:          0  USEFUL:          0  USELESS:          0
PSCL2 USEFUL LOAD PREFETCHES:          0 PREFETCH ISSUED TO LOWER LEVEL:          0  ACCURACY: -nan
PSCL2 TIMELY PREFETCHES:          0 LATE PREFETCHES: 0 DROPPED PREFETCHES: 0
PSCL2 PREFETCHES SAME FILL-ORIGIN LEVEL: 0 DIFFERENT FILL-ORIGIN LEVEL: 0

LLC TOTAL     ACCESS:    2015792  HIT:     840333  MISS:    1175459  HIT %:    41.6875  MISS %:    58.3125   MPKI: 23.5092
LLC LOAD      ACCESS:     427925  HIT:      91339  MISS:     336586  HIT %:    21.3446  MISS %:    78.6554   MPKI: 6.73172
LLC RFO       ACCESS:     141166  HIT:      19874  MISS:     121292  HIT %:    14.0785  MISS %:    85.9215   MPKI: 2.42584
LLC PREFETCH  ACCESS:     857729  HIT:     179239  MISS:     678490  HIT %:    20.8969  MISS %:    79.1031   MPKI: 13.5698
AGUS PREFETCH L1 MISS: 0
LLC WRITEBACK ACCESS:     447427  HIT:     446353  MISS:       1074  HIT %:      99.76  MISS %:   0.240039   MPKI: 0.02148
LLC LOAD TRANSLATION ACCESS:      37090  HIT:      29188  MISS:       7902  HIT %:    78.6951  MISS %:    21.3049   MPKI: 0.15804
LLC TRANSLATION FROM L1D PREFETCHER ACCESS:     104455  HIT:      74340  MISS:      30115  HIT %:    71.1694  MISS %:    28.8306   MPKI: 0.6023
LLC PREFETCH  REQUESTED:          0  ISSUED:          0  USEFUL:      49836  USELESS:     657625
LLC USEFUL LOAD PREFETCHES:      49836 PREFETCH ISSUED TO LOWER LEVEL:     678490  ACCURACY: 7.34513
LLC TIMELY PREFETCHES:      49836 LATE PREFETCHES: 0 DROPPED PREFETCHES: 0
LLC PREFETCHES SAME FILL-ORIGIN LEVEL: 0 DIFFERENT FILL-ORIGIN LEVEL: 0
LLC AVERAGE MISS LATENCY: 188.594 cycles
LLC RQ	ACCESS:     710637	FORWARD:          0	MERGED:          0	TO_CACHE:     710636
LLC WQ	ACCESS:     447427	FORWARD:          3	MERGED:          0	TO_CACHE:     447427
LLC PQ	ACCESS:     857731	FORWARD:          0	MERGED:          0	TO_CACHE:     857729

LLC Dense regions hint to LLC: 0

RAW hits: 795950
Loads Generated: 14875436
Loads sent to L1D: 14079486
Stores Generated: 8476009
Stores sent to L1D: 8476021
Major fault: 0 Minor fault: 33441
Allocated PAGES: 33441

stream: 
stream:times selected: 1009677
stream:pref_reqs: 980933
stream:pref_reqs_filtered_out: 32807
stream:pref_filled: 613170
stream:pref_useful: 101208
stream:pref_late: 12172
stream:misses: 96363
stream:misses_by_poll: 0

CS: 
CS:times selected: 19262
CS:pref_reqs: 19948
CS:pref_reqs_filtered_out: 4905
CS:pref_filled: 9416
CS:pref_useful: 1419
CS:pref_late: 93
CS:misses: 2323
CS:misses_by_poll: 1

CPLX: 
CPLX:times selected: 999141
CPLX:pref_reqs: 30256
CPLX:pref_reqs_filtered_out: 5266
CPLX:pref_filled: 22389
CPLX:pref_useful: 2067
CPLX:pref_late: 72
CPLX:misses: 294395
CPLX:misses_by_poll: 2

ISB: 
ISB:times selected:602489
ISB:pref_reqs: 1755624
ISB:pref_reqs_filtered_out: 92488
ISB:pref_filled: 1319462
ISB:pref_useful: 647453
ISB:pref_late: 7553
ISB:misses: 570191
ISB:misses_by_poll: 6502
ISB:Stream end: 392644
ISB:No Prediction: 407192 40.3288
ISB:No translation: 398429783 39461
ISB:Predictions: 1489092 147.481

NL_L1: 
NL:times selected: 5897
NL:pref_reqs: 5897
NL:pref_reqs_filtered_out: 410
NL:pref_filled: 3786
NL:pref_useful: 747
NL:pref_late: 89
NL:misses: 5883
NL:misses_by_poll: 0

total selections: 2636466
total_filled: 1070775
total_useful: 437642
total_late: 21153
total_polluted: 6505
total_misses_after_warmup: 690580
conflicts: 132346

test: 704506

DRAM Statistics
 CHANNEL 0
 RQ ROW_BUFFER_HIT:     127033  ROW_BUFFER_MISS:    1047332
 DBUS_CONGESTED:        252
 WQ ROW_BUFFER_HIT:      61750  ROW_BUFFER_MISS:     315833  FULL:          0

 AVG_CONGESTED_CYCLE: 4
 All warmup complete: 2
Channel 0 Bank busy for read cycles: 0
Channel 0 Bank busy for write cycles: 0
Channel 0
Rank 0
0banks busy for read cycles: 64780604
0banks busy for write cycles: 112482
1banks busy for read cycles: 34517726
1banks busy for write cycles: 14207966
2banks busy for read cycles: 20692225
2banks busy for write cycles: 7496410
3banks busy for read cycles: 10191287
3banks busy for write cycles: 4582503
4banks busy for read cycles: 6183341
4banks busy for write cycles: 2856182
5banks busy for read cycles: 3733788
5banks busy for write cycles: 1754035
6banks busy for read cycles: 1629182
6banks busy for write cycles: 1015664
7banks busy for read cycles: 460236
7banks busy for write cycles: 526097
8banks busy for read cycles: 72557
8banks busy for write cycles: 263257

CPU 0 Branch Prediction Accuracy: 94.0755% MPKI: 14.2353 Average ROB Occupancy at Mispredict: 25.5726
Branch types
NOT_BRANCH: 37985796 75.9716%
BRANCH_DIRECT_JUMP: 964405 1.92881%
BRANCH_INDIRECT: 140341 0.280682%
BRANCH_CONDITIONAL: 7911981 15.824%
BRANCH_DIRECT_CALL: 1294152 2.5883%
BRANCH_INDIRECT_CALL: 204449 0.408898%
BRANCH_RETURN: 1498606 2.99721%
BRANCH_OTHER: 0 0%

DRAM PAGES: 1048576
Allocated PAGES: 33441
