
*** ChampSim Multicore Out-of-Order Simulator ***

Warmup Instructions: 50000000
Simulation Instructions: 50000000
Number of CPUs: 1
LLC sets: 2048
LLC ways: 16
Off-chip DRAM Size: 4096 MB Channels: 1 Width: 64-bit Data Rate: 6400 MT/s
CPU 0 runs traces/SPEC-CPU2017/471.omnetpp-188B.champsimtrace.xz
.xz
CPU 0 Bimodal branch predictor
BTB has LRU replacement policy
ITLB has LRU replacement policy
DTLB has LRU replacement policy
STLB has LRU replacement policy
L1I has LRU replacement policy
L1D has LRU replacement policy
L2C has LRU replacement policy
LLC has LRU replacement policy
Heartbeat CPU 0 instructions: 10000001 cycles: 3268775 heartbeat IPC: 3.05925 cumulative IPC: 3.05925 (Simulation time: 0 hr 1 min 14 sec) 
Heartbeat CPU 0 instructions: 20000000 cycles: 6493303 heartbeat IPC: 3.10123 cumulative IPC: 3.0801 (Simulation time: 0 hr 2 min 27 sec) 
Heartbeat CPU 0 instructions: 30000000 cycles: 9751168 heartbeat IPC: 3.06949 cumulative IPC: 3.07655 (Simulation time: 0 hr 3 min 56 sec) 
Heartbeat CPU 0 instructions: 40000000 cycles: 12992339 heartbeat IPC: 3.0853 cumulative IPC: 3.07874 (Simulation time: 0 hr 5 min 16 sec) 
Heartbeat CPU 0 instructions: 50000003 cycles: 16239543 heartbeat IPC: 3.07957 cumulative IPC: 3.0789 (Simulation time: 0 hr 6 min 46 sec) 

Warmup complete CPU 0 instructions: 50000003 cycles: 16239543 (Simulation time: 0 hr 6 min 46 sec) 

Heartbeat CPU 0 instructions: 60000000 cycles: 57042739 heartbeat IPC: 0.245079 cumulative IPC: 0.245079 (Simulation time: 0 hr 8 min 6 sec) 
Heartbeat CPU 0 instructions: 70000001 cycles: 97196987 heartbeat IPC: 0.24904 cumulative IPC: 0.247043 (Simulation time: 0 hr 9 min 29 sec) 
Heartbeat CPU 0 instructions: 80000000 cycles: 139608285 heartbeat IPC: 0.235786 cumulative IPC: 0.243173 (Simulation time: 0 hr 10 min 59 sec) 
Heartbeat CPU 0 instructions: 90000003 cycles: 181703907 heartbeat IPC: 0.237554 cumulative IPC: 0.241744 (Simulation time: 0 hr 12 min 24 sec) 
Heartbeat CPU 0 instructions: 100000000 cycles: 224028732 heartbeat IPC: 0.236268 cumulative IPC: 0.240628 (Simulation time: 0 hr 13 min 51 sec) 
Finished CPU 0 instructions: 50000000 cycles: 207789198 cumulative IPC: 0.240628 (Simulation time: 0 hr 13 min 51 sec) 

ChampSim completed all CPUs

Region of Interest Statistics

CPU 0 cumulative IPC: 0.240628 instructions: 50000000 cycles: 207789198
ITLB TOTAL     ACCESS:    8724036  HIT:    8706833  MISS:      17203  HIT %:    99.8028  MISS %:   0.197191   MPKI: 0.34406
ITLB LOAD TRANSLATION ACCESS:    8724036  HIT:    8706833  MISS:      17203  HIT %:    99.8028  MISS %:   0.197191   MPKI: 0.34406
ITLB PREFETCH  REQUESTED:          0  ISSUED:          0  USEFUL:          0  USELESS:          0
ITLB USEFUL LOAD PREFETCHES:          0 PREFETCH ISSUED TO LOWER LEVEL:          0  ACCURACY: -nan
ITLB TIMELY PREFETCHES:          0 LATE PREFETCHES: 0 DROPPED PREFETCHES: 0
ITLB PREFETCHES SAME FILL-ORIGIN LEVEL: 0 DIFFERENT FILL-ORIGIN LEVEL: 0
ITLB AVERAGE MISS LATENCY: 11.4949 cycles
ITLB RQ	ACCESS:    9815637	FORWARD:          0	MERGED:    1083985	TO_CACHE:    8731652

DTLB TOTAL     ACCESS:   14690746  HIT:   13733185  MISS:     957561  HIT %:    93.4819  MISS %:    6.51812   MPKI: 19.1512
DTLB LOAD TRANSLATION ACCESS:   14690746  HIT:   13733185  MISS:     957561  HIT %:    93.4819  MISS %:    6.51812   MPKI: 19.1512
DTLB PREFETCH  REQUESTED:          0  ISSUED:          0  USEFUL:          0  USELESS:          0
DTLB USEFUL LOAD PREFETCHES:          0 PREFETCH ISSUED TO LOWER LEVEL:          0  ACCURACY: -nan
DTLB TIMELY PREFETCHES:          0 LATE PREFETCHES: 0 DROPPED PREFETCHES: 0
DTLB PREFETCHES SAME FILL-ORIGIN LEVEL: 0 DIFFERENT FILL-ORIGIN LEVEL: 0
DTLB AVERAGE MISS LATENCY: 25.3321 cycles
DTLB RQ	ACCESS:   17866102	FORWARD:          0	MERGED:    3128777	TO_CACHE:   14737325

STLB TOTAL     ACCESS:    1746067  HIT:    1515334  MISS:     230733  HIT %:    86.7856  MISS %:    13.2144   MPKI: 4.61466
STLB LOAD TRANSLATION ACCESS:     974764  HIT:     771950  MISS:     202814  HIT %:    79.1935  MISS %:    20.8065   MPKI: 4.05628
STLB TRANSLATION FROM L1D PREFETCHER ACCESS:     771303  HIT:     743384  MISS:      27919  HIT %:    96.3803  MISS %:    3.61972   MPKI: 0.55838
STLB PREFETCH  REQUESTED:          0  ISSUED:          0  USEFUL:      21494  USELESS:       6427
STLB USEFUL LOAD PREFETCHES:      21494 PREFETCH ISSUED TO LOWER LEVEL:          0  ACCURACY: inf
STLB TIMELY PREFETCHES:      21494 LATE PREFETCHES: 21 DROPPED PREFETCHES: 0
STLB PREFETCHES SAME FILL-ORIGIN LEVEL: 0 DIFFERENT FILL-ORIGIN LEVEL: 0
STLB AVERAGE MISS LATENCY: 91.816 cycles
STLB RQ	ACCESS:    1973223	FORWARD:          0	MERGED:     227077	TO_CACHE:    1746146

STLB Hit, L1D data hit: 0
STLB Hit, L2C data hit: 0
STLB Hit, LLC data hit: 0
STLB Hit, LLC data miss: 0
STLB STLB hints to L2: 0
L1D TOTAL     ACCESS:   18249185  HIT:   16514138  MISS:    1735047  HIT %:    90.4925  MISS %:    9.50753   MPKI: 34.7009
L1D LOAD      ACCESS:    9477244  HIT:    8603914  MISS:     873330  HIT %:     90.785  MISS %:    9.21502   MPKI: 17.4666
L1D RFO       ACCESS:    7917173  HIT:    7760265  MISS:     156908  HIT %:    98.0181  MISS %:    1.98187   MPKI: 3.13816
L1D PREFETCH  ACCESS:     854768  HIT:     149959  MISS:     704809  HIT %:    17.5438  MISS %:    82.4562   MPKI: 14.0962
AGUS PREFETCH L1 MISS: 0
L1D PREFETCH  REQUESTED:    2001027  ISSUED:    1997059  USEFUL:     165999  USELESS:     538966
L1D USEFUL LOAD PREFETCHES:     165999 PREFETCH ISSUED TO LOWER LEVEL:     724109  ACCURACY: 22.9246
L1D TIMELY PREFETCHES:     165999 LATE PREFETCHES: 18930 DROPPED PREFETCHES: 0
L1D PREFETCHES SAME FILL-ORIGIN LEVEL: 724109 DIFFERENT FILL-ORIGIN LEVEL: 0
L1D AVERAGE MISS LATENCY: 160.288 cycles
L1D RQ	ACCESS:   14078580	FORWARD:          0	MERGED:    4060326	TO_CACHE:    9570391
L1D WQ	ACCESS:    8476021	FORWARD:     448004	MERGED:     180310	TO_CACHE:    8295711
L1D PQ	ACCESS:     998600	FORWARD:          0	MERGED:          0	TO_CACHE:     998459

L1D UNIQUE REGIONS ACCESSED: 0
L1D REGIONS CONFLICTS: 0
L1D Cross Page Prefetch Requests: 146270
L1D Same Page Prefetch Requests: 1833482
L1D ROI Sum of L1D PQ occupancy: 23209502
L1D PREFETCHES PUSHED FROM L2C: 0
L1I TOTAL     ACCESS:    9815335  HIT:    9813794  MISS:       1541  HIT %:    99.9843  MISS %:  0.0156999   MPKI: 0.03082
L1I LOAD      ACCESS:    9815335  HIT:    9813794  MISS:       1541  HIT %:    99.9843  MISS %:  0.0156999   MPKI: 0.03082
L1I PREFETCH  REQUESTED:          0  ISSUED:          0  USEFUL:          0  USELESS:          0
L1I USEFUL LOAD PREFETCHES:          0 PREFETCH ISSUED TO LOWER LEVEL:          0  ACCURACY: -nan
L1I TIMELY PREFETCHES:          0 LATE PREFETCHES: 0 DROPPED PREFETCHES: 0
L1I PREFETCHES SAME FILL-ORIGIN LEVEL: 0 DIFFERENT FILL-ORIGIN LEVEL: 0
L1I AVERAGE MISS LATENCY: 157.856 cycles
L1I RQ	ACCESS:   14780678	FORWARD:          0	MERGED:    4965041	TO_CACHE:    9815637

BTB TOTAL     ACCESS:   10008119  HIT:    9487971  MISS:     520148  HIT %:    94.8027  MISS %:    5.19726   MPKI: 10.403
BTB BRANCH_DIRECT_JUMP	ACCESS:     964405  HIT:     964243  MISS:        162
BTB BRANCH_INDIRECT	ACCESS:     140341  HIT:     116325  MISS:      24016
BTB BRANCH_CONDITIONAL	ACCESS:    5906166  HIT:    5905777  MISS:        389
BTB BRANCH_DIRECT_CALL	ACCESS:    1294152  HIT:    1293861  MISS:        291
BTB BRANCH_INDIRECT_CALL	ACCESS:     204449  HIT:     203146  MISS:       1303
BTB BRANCH_RETURN	ACCESS:    1498606  HIT:    1004619  MISS:     493987
BTB BRANCH_OTHER ACCESS:          0  HIT:          0  MISS:          0

L2C TOTAL     ACCESS:    2483299  HIT:     879005  MISS:    1604294  HIT %:    35.3967  MISS %:    64.6033   MPKI: 32.0859
L2C LOAD      ACCESS:     855923  HIT:     136188  MISS:     719735  HIT %:    15.9112  MISS %:    84.0888   MPKI: 14.3947
L2C DATA LOAD MPKI: 14.3681
L2C INSTRUCTION LOAD MPKI: 0.0266
L2C RFO       ACCESS:     156538  HIT:       9749  MISS:     146789  HIT %:    6.22788  MISS %:    93.7721   MPKI: 2.93578
L2C PREFETCH  ACCESS:     724108  HIT:      89868  MISS:     634240  HIT %:    12.4109  MISS %:    87.5891   MPKI: 12.6848
AGUS PREFETCH L1 MISS: 0
L2C DATA PREFETCH MPKI: 12.6848
L2C INSTRUCTION PREFETCH MPKI: 0
L2C WRITEBACK ACCESS:     501774  HIT:     500207  MISS:       1567  HIT %:    99.6877  MISS %:   0.312292   MPKI: 0.03134
L2C LOAD TRANSLATION ACCESS:     214425  HIT:     128462  MISS:      85963  HIT %:      59.91  MISS %:      40.09   MPKI: 1.71926
L2C TRANSLATION FROM L1D PREFETCHER ACCESS:      30531  HIT:      14531  MISS:      16000  HIT %:    47.5942  MISS %:    52.4058   MPKI: 0.32
L2C PREFETCH  REQUESTED:          0  ISSUED:          0  USEFUL:      34322  USELESS:     616200
L2C USEFUL LOAD PREFETCHES:      34322 PREFETCH ISSUED TO LOWER LEVEL:     634240  ACCURACY: 5.41152
L2C TIMELY PREFETCHES:      34322 LATE PREFETCHES: 0 DROPPED PREFETCHES: 0
L2C PREFETCHES SAME FILL-ORIGIN LEVEL: 0 DIFFERENT FILL-ORIGIN LEVEL: 0
L2C AVERAGE MISS LATENCY: 163.406 cycles
L2C RQ	ACCESS:    1257435	FORWARD:          0	MERGED:          0	TO_CACHE:    1257417
L2C WQ	ACCESS:     501774	FORWARD:         19	MERGED:          0	TO_CACHE:     501774
L2C PQ	ACCESS:     724109	FORWARD:          0	MERGED:          0	TO_CACHE:     724108

L2C Instructions Evicting Data 1260
L2C Translations Evicting Data 95297
L2C Data Evicting Data 1402231
L2C Instructions Evicting Instructions 5
L2C Translations Evicting Instructions 85
L2C Data Evicting Instructions 1240
L2C Instructions Evicting Translations 65
L2C Translations Evicting Translations 6581
L2C Data Evicting Translations 95963
L2C Dense regions hint from L2: 0
PSCL5 TOTAL     ACCESS:     230733  HIT:     230733  MISS:          0  HIT %:        100  MISS %:          0   MPKI: 0
PSCL5 LOAD TRANSLATION ACCESS:     202793  HIT:     202793  MISS:          0  HIT %:        100  MISS %:          0   MPKI: 0
PSCL5 TRANSLATION FROM L1D PREFETCHER ACCESS:      27940  HIT:      27940  MISS:          0  HIT %:        100  MISS %:          0   MPKI: 0
PSCL5 PREFETCH  REQUESTED:          0  ISSUED:          0  USEFUL:          0  USELESS:          0
PSCL5 USEFUL LOAD PREFETCHES:          0 PREFETCH ISSUED TO LOWER LEVEL:          0  ACCURACY: -nan
PSCL5 TIMELY PREFETCHES:          0 LATE PREFETCHES: 0 DROPPED PREFETCHES: 0
PSCL5 PREFETCHES SAME FILL-ORIGIN LEVEL: 0 DIFFERENT FILL-ORIGIN LEVEL: 0

PSCL4 TOTAL     ACCESS:     230733  HIT:     230733  MISS:          0  HIT %:        100  MISS %:          0   MPKI: 0
PSCL4 LOAD TRANSLATION ACCESS:     202793  HIT:     202793  MISS:          0  HIT %:        100  MISS %:          0   MPKI: 0
PSCL4 TRANSLATION FROM L1D PREFETCHER ACCESS:      27940  HIT:      27940  MISS:          0  HIT %:        100  MISS %:          0   MPKI: 0
PSCL4 PREFETCH  REQUESTED:          0  ISSUED:          0  USEFUL:          0  USELESS:          0
PSCL4 USEFUL LOAD PREFETCHES:          0 PREFETCH ISSUED TO LOWER LEVEL:          0  ACCURACY: -nan
PSCL4 TIMELY PREFETCHES:          0 LATE PREFETCHES: 0 DROPPED PREFETCHES: 0
PSCL4 PREFETCHES SAME FILL-ORIGIN LEVEL: 0 DIFFERENT FILL-ORIGIN LEVEL: 0

PSCL3 TOTAL     ACCESS:     230733  HIT:     230733  MISS:          0  HIT %:        100  MISS %:          0   MPKI: 0
PSCL3 LOAD TRANSLATION ACCESS:     202793  HIT:     202793  MISS:          0  HIT %:        100  MISS %:          0   MPKI: 0
PSCL3 TRANSLATION FROM L1D PREFETCHER ACCESS:      27940  HIT:      27940  MISS:          0  HIT %:        100  MISS %:          0   MPKI: 0
PSCL3 PREFETCH  REQUESTED:          0  ISSUED:          0  USEFUL:          0  USELESS:          0
PSCL3 USEFUL LOAD PREFETCHES:          0 PREFETCH ISSUED TO LOWER LEVEL:          0  ACCURACY: -nan
PSCL3 TIMELY PREFETCHES:          0 LATE PREFETCHES: 0 DROPPED PREFETCHES: 0
PSCL3 PREFETCHES SAME FILL-ORIGIN LEVEL: 0 DIFFERENT FILL-ORIGIN LEVEL: 0

PSCL2 TOTAL     ACCESS:     230733  HIT:     216509  MISS:      14224  HIT %:    93.8353  MISS %:     6.1647   MPKI: 0.28448
PSCL2 LOAD TRANSLATION ACCESS:     205384  HIT:     191160  MISS:      14224  HIT %:    93.0744  MISS %:    6.92556   MPKI: 0.28448
PSCL2 TRANSLATION FROM L1D PREFETCHER ACCESS:      25349  HIT:      25349  MISS:          0  HIT %:        100  MISS %:          0   MPKI: 0
PSCL2 PREFETCH  REQUESTED:          0  ISSUED:          0  USEFUL:          0  USELESS:          0
PSCL2 USEFUL LOAD PREFETCHES:          0 PREFETCH ISSUED TO LOWER LEVEL:          0  ACCURACY: -nan
PSCL2 TIMELY PREFETCHES:          0 LATE PREFETCHES: 0 DROPPED PREFETCHES: 0
PSCL2 PREFETCHES SAME FILL-ORIGIN LEVEL: 0 DIFFERENT FILL-ORIGIN LEVEL: 0

LLC TOTAL     ACCESS:    2049920  HIT:     742849  MISS:    1307071  HIT %:     36.238  MISS %:     63.762   MPKI: 26.1414
LLC LOAD      ACCESS:     719734  HIT:     116457  MISS:     603277  HIT %:    16.1806  MISS %:    83.8194   MPKI: 12.0655
LLC RFO       ACCESS:     146789  HIT:      18494  MISS:     128295  HIT %:     12.599  MISS %:     87.401   MPKI: 2.5659
LLC PREFETCH  ACCESS:     634240  HIT:      99665  MISS:     534575  HIT %:    15.7141  MISS %:    84.2859   MPKI: 10.6915
AGUS PREFETCH L1 MISS: 0
LLC WRITEBACK ACCESS:     447194  HIT:     446097  MISS:       1097  HIT %:    99.7547  MISS %:   0.245307   MPKI: 0.02194
LLC LOAD TRANSLATION ACCESS:      85963  HIT:      53415  MISS:      32548  HIT %:    62.1372  MISS %:    37.8628   MPKI: 0.65096
LLC TRANSLATION FROM L1D PREFETCHER ACCESS:      16000  HIT:       8721  MISS:       7279  HIT %:    54.5063  MISS %:    45.4937   MPKI: 0.14558
LLC PREFETCH  REQUESTED:          0  ISSUED:          0  USEFUL:      22634  USELESS:     520619
LLC USEFUL LOAD PREFETCHES:      22634 PREFETCH ISSUED TO LOWER LEVEL:     534575  ACCURACY: 4.23402
LLC TIMELY PREFETCHES:      22634 LATE PREFETCHES: 0 DROPPED PREFETCHES: 0
LLC PREFETCHES SAME FILL-ORIGIN LEVEL: 0 DIFFERENT FILL-ORIGIN LEVEL: 0
LLC AVERAGE MISS LATENCY: 163.71 cycles
LLC RQ	ACCESS:     968487	FORWARD:          0	MERGED:          0	TO_CACHE:     968486
LLC WQ	ACCESS:     447194	FORWARD:          1	MERGED:          0	TO_CACHE:     447194
LLC PQ	ACCESS:     634240	FORWARD:          0	MERGED:          0	TO_CACHE:     634240

LLC Dense regions hint to LLC: 0

RAW hits: 796855
Loads Generated: 14875435
Loads sent to L1D: 14078580
Stores Generated: 8476009
Stores sent to L1D: 8476021
Major fault: 0 Minor fault: 33441
Allocated PAGES: 33441

stream: 
stream:times selected: 1826453
stream:pref_reqs: 1773661
stream:pref_reqs_filtered_out: 100144
stream:pref_filled: 1115785
stream:pref_useful: 242444
stream:pref_late: 32414
stream:misses: 450287
stream:misses_by_poll: 0

CS: 
CS:times selected: 86868
CS:pref_reqs: 87074
CS:pref_reqs_filtered_out: 17084
CS:pref_filled: 48474
CS:pref_useful: 4055
CS:pref_late: 192
CS:misses: 11700
CS:misses_by_poll: 22

CPLX: 
CPLX:times selected: 1811832
CPLX:pref_reqs: 110351
CPLX:pref_reqs_filtered_out: 21312
CPLX:pref_filled: 83936
CPLX:pref_useful: 6095
CPLX:pref_late: 237
CPLX:misses: 1365400
CPLX:misses_by_poll: 34

ISB: 
ISB:total access:1845884
ISB:times selected:1246988
ISB:canary counter:0
ISB:pref_reqs: 168367
ISB:pref_reqs_filtered_out: 10698
ISB:pref_filled: 119392
ISB:pref_useful: 58383
ISB:pref_late: 313
ISB:misses: 25575
ISB:misses_by_poll: 62
ISB:Stream end: 1222664
ISB:No Prediction: 598896 32.4449
ISB:No translation: 1250463551 67743.3
ISB:Predictions: 152048 8.23714

NL_L1: 
NL:times selected: 17869
NL:pref_reqs: 17869
NL:pref_reqs_filtered_out: 1237
NL:pref_filled: 12338
NL:pref_useful: 3575
NL:pref_late: 403
NL:misses: 18294
NL:misses_by_poll: 1

Coverage: 15.9717
total selections: 4990010
total_filled: 704809
total_useful: 165999
total_late: 34882
total_polluted: 119
total_misses_after_warmup: 966477
conflicts: 3090

test: 0
Prefetcher final stats
Training Unit Size: 0
Addr table size: 299046 308735
Stream divergence: 1755184 95.0864
Stream divergence -- new stream: 0
--------------------------Training unit table ------------------------

DRAM Statistics
 CHANNEL 0
 RQ ROW_BUFFER_HIT:     182178  ROW_BUFFER_MISS:    1123786
 DBUS_CONGESTED:        751
 WQ ROW_BUFFER_HIT:     109424  ROW_BUFFER_MISS:     275390  FULL:          0

 AVG_CONGESTED_CYCLE: 4
 All warmup complete: 2
Channel 0 Bank busy for read cycles: 0
Channel 0 Bank busy for write cycles: 0
Channel 0
Rank 0
0banks busy for read cycles: 72425327
0banks busy for write cycles: 138070
1banks busy for read cycles: 38540624
1banks busy for write cycles: 19900757
2banks busy for read cycles: 33759401
2banks busy for write cycles: 11458096
3banks busy for read cycles: 11611796
3banks busy for write cycles: 6126853
4banks busy for read cycles: 5592988
4banks busy for write cycles: 3114650
5banks busy for read cycles: 1987434
5banks busy for write cycles: 1499173
6banks busy for read cycles: 552587
6banks busy for write cycles: 637979
7banks busy for read cycles: 135277
7banks busy for write cycles: 232317
8banks busy for read cycles: 26765
8banks busy for write cycles: 49105

CPU 0 Branch Prediction Accuracy: 94.0755% MPKI: 14.2353 Average ROB Occupancy at Mispredict: 25.9718
Branch types
NOT_BRANCH: 37985796 75.9716%
BRANCH_DIRECT_JUMP: 964405 1.92881%
BRANCH_INDIRECT: 140341 0.280682%
BRANCH_CONDITIONAL: 7911981 15.824%
BRANCH_DIRECT_CALL: 1294152 2.5883%
BRANCH_INDIRECT_CALL: 204449 0.408898%
BRANCH_RETURN: 1498606 2.99721%
BRANCH_OTHER: 0 0%

DRAM PAGES: 1048576
Allocated PAGES: 33441
