
*** ChampSim Multicore Out-of-Order Simulator ***

Warmup Instructions: 50000000
Simulation Instructions: 50000000
Number of CPUs: 1
LLC sets: 2048
LLC ways: 16
Off-chip DRAM Size: 4096 MB Channels: 1 Width: 64-bit Data Rate: 6400 MT/s
CPU 0 runs traces/SPEC-CPU2017/471.omnetpp-188B.champsimtrace.xz
.xz
CPU 0 Bimodal branch predictor
BTB has LRU replacement policy
ITLB has LRU replacement policy
DTLB has LRU replacement policy
STLB has LRU replacement policy
L1I has LRU replacement policy
L1D has LRU replacement policy
L2C has LRU replacement policy
LLC has LRU replacement policy
Heartbeat CPU 0 instructions: 10000001 cycles: 3268481 heartbeat IPC: 3.05953 cumulative IPC: 3.05953 (Simulation time: 0 hr 3 min 47 sec) 
Heartbeat CPU 0 instructions: 20000000 cycles: 6494348 heartbeat IPC: 3.09994 cumulative IPC: 3.0796 (Simulation time: 0 hr 7 min 26 sec) 
Heartbeat CPU 0 instructions: 30000000 cycles: 9743030 heartbeat IPC: 3.07817 cumulative IPC: 3.07912 (Simulation time: 0 hr 11 min 16 sec) 
Heartbeat CPU 0 instructions: 40000000 cycles: 12980048 heartbeat IPC: 3.08926 cumulative IPC: 3.08165 (Simulation time: 0 hr 15 min 1 sec) 
Heartbeat CPU 0 instructions: 50000000 cycles: 16206027 heartbeat IPC: 3.09983 cumulative IPC: 3.08527 (Simulation time: 0 hr 18 min 47 sec) 

Warmup complete CPU 0 instructions: 50000004 cycles: 16206028 (Simulation time: 0 hr 18 min 47 sec) 

Heartbeat CPU 0 instructions: 60000000 cycles: 55659058 heartbeat IPC: 0.253466 cumulative IPC: 0.253466 (Simulation time: 0 hr 19 min 49 sec) 
Heartbeat CPU 0 instructions: 70000001 cycles: 93900628 heartbeat IPC: 0.261496 cumulative IPC: 0.257418 (Simulation time: 0 hr 20 min 52 sec) 
Heartbeat CPU 0 instructions: 80000000 cycles: 133570776 heartbeat IPC: 0.252079 cumulative IPC: 0.255613 (Simulation time: 0 hr 21 min 58 sec) 
Heartbeat CPU 0 instructions: 90000003 cycles: 173641255 heartbeat IPC: 0.24956 cumulative IPC: 0.254073 (Simulation time: 0 hr 23 min 2 sec) 
Heartbeat CPU 0 instructions: 100000000 cycles: 213632909 heartbeat IPC: 0.250052 cumulative IPC: 0.253258 (Simulation time: 0 hr 24 min 8 sec) 
Finished CPU 0 instructions: 50000000 cycles: 197426919 cumulative IPC: 0.253258 (Simulation time: 0 hr 24 min 8 sec) 

ChampSim completed all CPUs

Region of Interest Statistics

CPU 0 cumulative IPC: 0.253258 instructions: 50000000 cycles: 197426919
ITLB TOTAL     ACCESS:    8716740  HIT:    8699537  MISS:      17203  HIT %:    99.8026  MISS %:   0.197356   MPKI: 0.34406
ITLB LOAD TRANSLATION ACCESS:    8716740  HIT:    8699537  MISS:      17203  HIT %:    99.8026  MISS %:   0.197356   MPKI: 0.34406
ITLB PREFETCH  REQUESTED:          0  ISSUED:          0  USEFUL:          0  USELESS:          0
ITLB USEFUL LOAD PREFETCHES:          0 PREFETCH ISSUED TO LOWER LEVEL:          0  ACCURACY: -nan
ITLB TIMELY PREFETCHES:          0 LATE PREFETCHES: 0 DROPPED PREFETCHES: 0
ITLB PREFETCHES SAME FILL-ORIGIN LEVEL: 0 DIFFERENT FILL-ORIGIN LEVEL: 0
ITLB AVERAGE MISS LATENCY: 12.0686 cycles
ITLB RQ	ACCESS:    9805570	FORWARD:          0	MERGED:    1081212	TO_CACHE:    8724358

DTLB TOTAL     ACCESS:   14680788  HIT:   13723251  MISS:     957537  HIT %:    93.4776  MISS %:    6.52238   MPKI: 19.1507
DTLB LOAD TRANSLATION ACCESS:   14680788  HIT:   13723251  MISS:     957537  HIT %:    93.4776  MISS %:    6.52238   MPKI: 19.1507
DTLB PREFETCH  REQUESTED:          0  ISSUED:          0  USEFUL:          0  USELESS:          0
DTLB USEFUL LOAD PREFETCHES:          0 PREFETCH ISSUED TO LOWER LEVEL:          0  ACCURACY: -nan
DTLB TIMELY PREFETCHES:          0 LATE PREFETCHES: 0 DROPPED PREFETCHES: 0
DTLB PREFETCHES SAME FILL-ORIGIN LEVEL: 0 DIFFERENT FILL-ORIGIN LEVEL: 0
DTLB AVERAGE MISS LATENCY: 20.3742 cycles
DTLB RQ	ACCESS:   17859970	FORWARD:          0	MERGED:    3134001	TO_CACHE:   14725969

STLB TOTAL     ACCESS:    2866576  HIT:    2548400  MISS:     318176  HIT %:    88.9005  MISS %:    11.0995   MPKI: 6.36352
STLB LOAD TRANSLATION ACCESS:     974740  HIT:     829309  MISS:     145431  HIT %:      85.08  MISS %:      14.92   MPKI: 2.90862
STLB TRANSLATION FROM L1D PREFETCHER ACCESS:    1891836  HIT:    1719091  MISS:     172745  HIT %:    90.8689  MISS %:    9.13108   MPKI: 3.4549
STLB PREFETCH  REQUESTED:          0  ISSUED:          0  USEFUL:     106183  USELESS:      66383
STLB USEFUL LOAD PREFETCHES:     106183 PREFETCH ISSUED TO LOWER LEVEL:          0  ACCURACY: inf
STLB TIMELY PREFETCHES:     106183 LATE PREFETCHES: 488 DROPPED PREFETCHES: 0
STLB PREFETCHES SAME FILL-ORIGIN LEVEL: 0 DIFFERENT FILL-ORIGIN LEVEL: 0
STLB AVERAGE MISS LATENCY: 114.988 cycles
STLB RQ	ACCESS:    3267723	FORWARD:          0	MERGED:     399660	TO_CACHE:    2868063

STLB Hit, L1D data hit: 0
STLB Hit, L2C data hit: 0
STLB Hit, LLC data hit: 0
STLB Hit, LLC data miss: 0
STLB STLB hints to L2: 0
L1D TOTAL     ACCESS:   19594062  HIT:   17689370  MISS:    1904692  HIT %:    90.2792  MISS %:    9.72076   MPKI: 38.0938
L1D LOAD      ACCESS:    9480325  HIT:    8654969  MISS:     825356  HIT %:     91.294  MISS %:    8.70599   MPKI: 16.5071
L1D RFO       ACCESS:    7875111  HIT:    7712994  MISS:     162117  HIT %:    97.9414  MISS %:     2.0586   MPKI: 3.24234
L1D PREFETCH  ACCESS:    2238626  HIT:    1321407  MISS:     917219  HIT %:    59.0276  MISS %:    40.9724   MPKI: 18.3444
AGUS PREFETCH L1 MISS: 0
L1D PREFETCH  REQUESTED:    4656024  ISSUED:    4586065  USEFUL:     226873  USELESS:     690435
L1D USEFUL LOAD PREFETCHES:     226873 PREFETCH ISSUED TO LOWER LEVEL:     935333  ACCURACY: 24.2559
L1D TIMELY PREFETCHES:     226873 LATE PREFETCHES: 17147 DROPPED PREFETCHES: 0
L1D PREFETCHES SAME FILL-ORIGIN LEVEL: 935333 DIFFERENT FILL-ORIGIN LEVEL: 0
L1D AVERAGE MISS LATENCY: 156.164 cycles
L1D RQ	ACCESS:   14073215	FORWARD:          0	MERGED:    4056211	TO_CACHE:    9565982
L1D WQ	ACCESS:    8476021	FORWARD:     451121	MERGED:     182033	TO_CACHE:    8293988
L1D PQ	ACCESS:    2293082	FORWARD:          0	MERGED:          0	TO_CACHE:    2292983

L1D UNIQUE REGIONS ACCESSED: 0
L1D REGIONS CONFLICTS: 0
L1D Cross Page Prefetch Requests: 716904
L1D Same Page Prefetch Requests: 3645915
L1D ROI Sum of L1D PQ occupancy: 73400061
L1D PREFETCHES PUSHED FROM L2C: 0
L1I TOTAL     ACCESS:    9805268  HIT:    9803727  MISS:       1541  HIT %:    99.9843  MISS %:   0.015716   MPKI: 0.03082
L1I LOAD      ACCESS:    9805268  HIT:    9803727  MISS:       1541  HIT %:    99.9843  MISS %:   0.015716   MPKI: 0.03082
L1I PREFETCH  REQUESTED:          0  ISSUED:          0  USEFUL:          0  USELESS:          0
L1I USEFUL LOAD PREFETCHES:          0 PREFETCH ISSUED TO LOWER LEVEL:          0  ACCURACY: -nan
L1I TIMELY PREFETCHES:          0 LATE PREFETCHES: 0 DROPPED PREFETCHES: 0
L1I PREFETCHES SAME FILL-ORIGIN LEVEL: 0 DIFFERENT FILL-ORIGIN LEVEL: 0
L1I AVERAGE MISS LATENCY: 160.333 cycles
L1I RQ	ACCESS:   14759675	FORWARD:          0	MERGED:    4954105	TO_CACHE:    9805570

BTB TOTAL     ACCESS:   10008127  HIT:    9487979  MISS:     520148  HIT %:    94.8027  MISS %:    5.19726   MPKI: 10.403
BTB BRANCH_DIRECT_JUMP	ACCESS:     964407  HIT:     964245  MISS:        162
BTB BRANCH_INDIRECT	ACCESS:     140341  HIT:     116325  MISS:      24016
BTB BRANCH_CONDITIONAL	ACCESS:    5906173  HIT:    5905784  MISS:        389
BTB BRANCH_DIRECT_CALL	ACCESS:    1294152  HIT:    1293861  MISS:        291
BTB BRANCH_INDIRECT_CALL	ACCESS:     204449  HIT:     203146  MISS:       1303
BTB BRANCH_RETURN	ACCESS:    1498605  HIT:    1004618  MISS:     493987
BTB BRANCH_OTHER ACCESS:          0  HIT:          0  MISS:          0

L2C TOTAL     ACCESS:    2755742  HIT:    1087190  MISS:    1668552  HIT %:    39.4518  MISS %:    60.5482   MPKI: 33.371
L2C LOAD      ACCESS:     809720  HIT:     148908  MISS:     660812  HIT %:    18.3901  MISS %:    81.6099   MPKI: 13.2162
L2C DATA LOAD MPKI: 13.1891
L2C INSTRUCTION LOAD MPKI: 0.02712
L2C RFO       ACCESS:     161151  HIT:      12904  MISS:     148247  HIT %:     8.0074  MISS %:    91.9926   MPKI: 2.96494
L2C PREFETCH  ACCESS:     935311  HIT:     213073  MISS:     722238  HIT %:     22.781  MISS %:     77.219   MPKI: 14.4448
AGUS PREFETCH L1 MISS: 0
L2C DATA PREFETCH MPKI: 14.4448
L2C INSTRUCTION PREFETCH MPKI: 0
L2C WRITEBACK ACCESS:     504895  HIT:     502903  MISS:       1992  HIT %:    99.6055  MISS %:   0.394537   MPKI: 0.03984
L2C LOAD TRANSLATION ACCESS:     155722  HIT:     101559  MISS:      54163  HIT %:    65.2181  MISS %:    34.7819   MPKI: 1.08326
L2C TRANSLATION FROM L1D PREFETCHER ACCESS:     188943  HIT:     107843  MISS:      81100  HIT %:     57.077  MISS %:     42.923   MPKI: 1.622
L2C PREFETCH  REQUESTED:          0  ISSUED:          0  USEFUL:      86627  USELESS:     717663
L2C USEFUL LOAD PREFETCHES:      86627 PREFETCH ISSUED TO LOWER LEVEL:     722239  ACCURACY: 11.9942
L2C TIMELY PREFETCHES:      86627 LATE PREFETCHES: 0 DROPPED PREFETCHES: 0
L2C PREFETCHES SAME FILL-ORIGIN LEVEL: 0 DIFFERENT FILL-ORIGIN LEVEL: 0
L2C AVERAGE MISS LATENCY: 168.182 cycles
L2C RQ	ACCESS:    1315566	FORWARD:          0	MERGED:          0	TO_CACHE:    1315536
L2C WQ	ACCESS:     504895	FORWARD:         51	MERGED:          0	TO_CACHE:     504895
L2C PQ	ACCESS:     935333	FORWARD:          0	MERGED:          0	TO_CACHE:     935312

L2C Instructions Evicting Data 1279
L2C Translations Evicting Data 123788
L2C Data Evicting Data 1404392
L2C Instructions Evicting Instructions 4
L2C Translations Evicting Instructions 86
L2C Data Evicting Instructions 1265
L2C Instructions Evicting Translations 73
L2C Translations Evicting Translations 11389
L2C Data Evicting Translations 124284
L2C Dense regions hint from L2: 0
PSCL5 TOTAL     ACCESS:     318176  HIT:     318176  MISS:          0  HIT %:        100  MISS %:          0   MPKI: 0
PSCL5 LOAD TRANSLATION ACCESS:     144943  HIT:     144943  MISS:          0  HIT %:        100  MISS %:          0   MPKI: 0
PSCL5 TRANSLATION FROM L1D PREFETCHER ACCESS:     173233  HIT:     173233  MISS:          0  HIT %:        100  MISS %:          0   MPKI: 0
PSCL5 PREFETCH  REQUESTED:          0  ISSUED:          0  USEFUL:          0  USELESS:          0
PSCL5 USEFUL LOAD PREFETCHES:          0 PREFETCH ISSUED TO LOWER LEVEL:          0  ACCURACY: -nan
PSCL5 TIMELY PREFETCHES:          0 LATE PREFETCHES: 0 DROPPED PREFETCHES: 0
PSCL5 PREFETCHES SAME FILL-ORIGIN LEVEL: 0 DIFFERENT FILL-ORIGIN LEVEL: 0

PSCL4 TOTAL     ACCESS:     318176  HIT:     318176  MISS:          0  HIT %:        100  MISS %:          0   MPKI: 0
PSCL4 LOAD TRANSLATION ACCESS:     144943  HIT:     144943  MISS:          0  HIT %:        100  MISS %:          0   MPKI: 0
PSCL4 TRANSLATION FROM L1D PREFETCHER ACCESS:     173233  HIT:     173233  MISS:          0  HIT %:        100  MISS %:          0   MPKI: 0
PSCL4 PREFETCH  REQUESTED:          0  ISSUED:          0  USEFUL:          0  USELESS:          0
PSCL4 USEFUL LOAD PREFETCHES:          0 PREFETCH ISSUED TO LOWER LEVEL:          0  ACCURACY: -nan
PSCL4 TIMELY PREFETCHES:          0 LATE PREFETCHES: 0 DROPPED PREFETCHES: 0
PSCL4 PREFETCHES SAME FILL-ORIGIN LEVEL: 0 DIFFERENT FILL-ORIGIN LEVEL: 0

PSCL3 TOTAL     ACCESS:     318176  HIT:     318176  MISS:          0  HIT %:        100  MISS %:          0   MPKI: 0
PSCL3 LOAD TRANSLATION ACCESS:     144943  HIT:     144943  MISS:          0  HIT %:        100  MISS %:          0   MPKI: 0
PSCL3 TRANSLATION FROM L1D PREFETCHER ACCESS:     173233  HIT:     173233  MISS:          0  HIT %:        100  MISS %:          0   MPKI: 0
PSCL3 PREFETCH  REQUESTED:          0  ISSUED:          0  USEFUL:          0  USELESS:          0
PSCL3 USEFUL LOAD PREFETCHES:          0 PREFETCH ISSUED TO LOWER LEVEL:          0  ACCURACY: -nan
PSCL3 TIMELY PREFETCHES:          0 LATE PREFETCHES: 0 DROPPED PREFETCHES: 0
PSCL3 PREFETCHES SAME FILL-ORIGIN LEVEL: 0 DIFFERENT FILL-ORIGIN LEVEL: 0

PSCL2 TOTAL     ACCESS:     318176  HIT:     291686  MISS:      26490  HIT %:    91.6744  MISS %:    8.32558   MPKI: 0.5298
PSCL2 LOAD TRANSLATION ACCESS:     160653  HIT:     134163  MISS:      26490  HIT %:     83.511  MISS %:     16.489   MPKI: 0.5298
PSCL2 TRANSLATION FROM L1D PREFETCHER ACCESS:     157523  HIT:     157523  MISS:          0  HIT %:        100  MISS %:          0   MPKI: 0
PSCL2 PREFETCH  REQUESTED:          0  ISSUED:          0  USEFUL:          0  USELESS:          0
PSCL2 USEFUL LOAD PREFETCHES:          0 PREFETCH ISSUED TO LOWER LEVEL:          0  ACCURACY: -nan
PSCL2 TIMELY PREFETCHES:          0 LATE PREFETCHES: 0 DROPPED PREFETCHES: 0
PSCL2 PREFETCHES SAME FILL-ORIGIN LEVEL: 0 DIFFERENT FILL-ORIGIN LEVEL: 0

LLC TOTAL     ACCESS:    2114218  HIT:     811264  MISS:    1302954  HIT %:    38.3718  MISS %:    61.6282   MPKI: 26.0591
LLC LOAD      ACCESS:     660812  HIT:     111906  MISS:     548906  HIT %:    16.9346  MISS %:    83.0654   MPKI: 10.9781
LLC RFO       ACCESS:     148247  HIT:      19264  MISS:     128983  HIT %:    12.9945  MISS %:    87.0055   MPKI: 2.57966
LLC PREFETCH  ACCESS:     722237  HIT:     139738  MISS:     582499  HIT %:    19.3479  MISS %:    80.6521   MPKI: 11.65
AGUS PREFETCH L1 MISS: 0
LLC WRITEBACK ACCESS:     447659  HIT:     446104  MISS:       1555  HIT %:    99.6526  MISS %:   0.347363   MPKI: 0.0311
LLC LOAD TRANSLATION ACCESS:      54163  HIT:      39723  MISS:      14440  HIT %:    73.3397  MISS %:    26.6603   MPKI: 0.2888
LLC TRANSLATION FROM L1D PREFETCHER ACCESS:      81100  HIT:      54529  MISS:      26571  HIT %:    67.2367  MISS %:    32.7633   MPKI: 0.53142
LLC PREFETCH  REQUESTED:          0  ISSUED:          0  USEFUL:      40463  USELESS:     570729
LLC USEFUL LOAD PREFETCHES:      40463 PREFETCH ISSUED TO LOWER LEVEL:     582499  ACCURACY: 6.94645
LLC TIMELY PREFETCHES:      40463 LATE PREFETCHES: 0 DROPPED PREFETCHES: 0
LLC PREFETCHES SAME FILL-ORIGIN LEVEL: 0 DIFFERENT FILL-ORIGIN LEVEL: 0
LLC AVERAGE MISS LATENCY: 176.948 cycles
LLC RQ	ACCESS:     944322	FORWARD:          0	MERGED:          0	TO_CACHE:     944322
LLC WQ	ACCESS:     447659	FORWARD:          1	MERGED:          0	TO_CACHE:     447659
LLC PQ	ACCESS:     722239	FORWARD:          0	MERGED:          0	TO_CACHE:     722238

LLC Dense regions hint to LLC: 0

RAW hits: 802219
Loads Generated: 14875437
Loads sent to L1D: 14073215
Stores Generated: 8476008
Stores sent to L1D: 8476021
Major fault: 0 Minor fault: 33441
Allocated PAGES: 33441

stream: 
stream:times selected: 4301339
stream:pref_reqs: 4203817
stream:pref_reqs_filtered_out: 1001323
stream:pref_filled: 774731
stream:pref_useful: 146057
stream:pref_late: 17347
stream:misses: 83505
stream:misses_by_poll: 0

CS: 
CS:times selected: 56138
CS:pref_reqs: 56710
CS:pref_reqs_filtered_out: 17908
CS:pref_filled: 21127
CS:pref_useful: 4420
CS:pref_late: 281
CS:misses: 1309
CS:misses_by_poll: 0

CPLX: 
CPLX:times selected: 4260469
CPLX:pref_reqs: 573871
CPLX:pref_reqs_filtered_out: 156859
CPLX:pref_filled: 235374
CPLX:pref_useful: 9051
CPLX:pref_late: 1355
CPLX:misses: 259861
CPLX:misses_by_poll: 123

ISB: 
ISB:times selected:388629
ISB:pref_reqs: 913697
ISB:pref_reqs_filtered_out: 57416
ISB:pref_filled: 638503
ISB:pref_useful: 235408
ISB:pref_late: 5732
ISB:misses: 177084
ISB:misses_by_poll: 749
ISB:Stream end: 299792
ISB:No Prediction: 3912713 90.9649
ISB:No translation: 304773687 7085.55
ISB:Predictions: 732935 17.0397

NL_L1: 
NL:times selected: 26501
NL:pref_reqs: 26501
NL:pref_reqs_filtered_out: 4966
NL:pref_filled: 6080
NL:pref_useful: 1004
NL:pref_late: 157
NL:misses: 3665
NL:misses_by_poll: 0

total selections: 9033076
total_filled: 917219
total_useful: 226873
total_late: 26022
total_polluted: 872
total_misses_after_warmup: 911014
conflicts: 4581427

test: 2671927

DRAM Statistics
 CHANNEL 0
 RQ ROW_BUFFER_HIT:     135405  ROW_BUFFER_MISS:    1165953
 DBUS_CONGESTED:        526
 WQ ROW_BUFFER_HIT:     113942  ROW_BUFFER_MISS:     268935  FULL:          0

 AVG_CONGESTED_CYCLE: 4
 All warmup complete: 2
Channel 0 Bank busy for read cycles: 0
Channel 0 Bank busy for write cycles: 0
Channel 0
Rank 0
0banks busy for read cycles: 57261730
0banks busy for write cycles: 121491
1banks busy for read cycles: 53596202
1banks busy for write cycles: 18649977
2banks busy for read cycles: 25786601
2banks busy for write cycles: 9514691
3banks busy for read cycles: 11361187
3banks busy for write cycles: 5173950
4banks busy for read cycles: 5404099
4banks busy for write cycles: 3016284
5banks busy for read cycles: 2546740
5banks busy for write cycles: 1750948
6banks busy for read cycles: 980223
6banks busy for write cycles: 1030504
7banks busy for read cycles: 266509
7banks busy for write cycles: 586745
8banks busy for read cycles: 41156
8banks busy for write cycles: 337883

CPU 0 Branch Prediction Accuracy: 94.0755% MPKI: 14.2353 Average ROB Occupancy at Mispredict: 26.1523
Branch types
NOT_BRANCH: 37985827 75.9717%
BRANCH_DIRECT_JUMP: 964407 1.92881%
BRANCH_INDIRECT: 140341 0.280682%
BRANCH_CONDITIONAL: 7911988 15.824%
BRANCH_DIRECT_CALL: 1294152 2.5883%
BRANCH_INDIRECT_CALL: 204449 0.408898%
BRANCH_RETURN: 1498605 2.99721%
BRANCH_OTHER: 0 0%

DRAM PAGES: 1048576
Allocated PAGES: 33441
