
*** ChampSim Multicore Out-of-Order Simulator ***

Warmup Instructions: 50000000
Simulation Instructions: 50000000
Number of CPUs: 1
LLC sets: 2048
LLC ways: 16
Off-chip DRAM Size: 4096 MB Channels: 1 Width: 64-bit Data Rate: 6400 MT/s
CPU 0 runs traces/SPEC-CPU2017/471.omnetpp-188B.champsimtrace.xz
.xz
CPU 0 Bimodal branch predictor
BTB has LRU replacement policy
ITLB has LRU replacement policy
DTLB has LRU replacement policy
STLB has LRU replacement policy
L1I has LRU replacement policy
Ideal ISB Prefetching
L1D has LRU replacement policy
L2C has LRU replacement policy
LLC has LRU replacement policy
Heartbeat CPU 0 instructions: 10000001 cycles: 3274796 heartbeat IPC: 3.05363 cumulative IPC: 3.05363 (Simulation time: 0 hr 0 min 44 sec) 
Heartbeat CPU 0 instructions: 20000000 cycles: 6505796 heartbeat IPC: 3.09502 cumulative IPC: 3.07418 (Simulation time: 0 hr 1 min 30 sec) 
Heartbeat CPU 0 instructions: 30000000 cycles: 9751416 heartbeat IPC: 3.08108 cumulative IPC: 3.07648 (Simulation time: 0 hr 2 min 19 sec) 
Heartbeat CPU 0 instructions: 40000000 cycles: 12990447 heartbeat IPC: 3.08734 cumulative IPC: 3.07919 (Simulation time: 0 hr 3 min 8 sec) 
Heartbeat CPU 0 instructions: 50000003 cycles: 16209557 heartbeat IPC: 3.10645 cumulative IPC: 3.0846 (Simulation time: 0 hr 3 min 58 sec) 

Warmup complete CPU 0 instructions: 50000003 cycles: 16209557 (Simulation time: 0 hr 3 min 58 sec) 

Heartbeat CPU 0 instructions: 60000000 cycles: 50020827 heartbeat IPC: 0.295759 cumulative IPC: 0.295759 (Simulation time: 0 hr 5 min 1 sec) 
Heartbeat CPU 0 instructions: 70000001 cycles: 82081659 heartbeat IPC: 0.311907 cumulative IPC: 0.303619 (Simulation time: 0 hr 6 min 6 sec) 
Heartbeat CPU 0 instructions: 80000000 cycles: 113613201 heartbeat IPC: 0.317143 cumulative IPC: 0.307997 (Simulation time: 0 hr 7 min 13 sec) 
Heartbeat CPU 0 instructions: 90000003 cycles: 145131020 heartbeat IPC: 0.317281 cumulative IPC: 0.310266 (Simulation time: 0 hr 8 min 18 sec) 
Heartbeat CPU 0 instructions: 100000000 cycles: 177321747 heartbeat IPC: 0.310648 cumulative IPC: 0.310343 (Simulation time: 0 hr 9 min 27 sec) 
Finished CPU 0 instructions: 50000000 cycles: 161112199 cumulative IPC: 0.310343 (Simulation time: 0 hr 9 min 27 sec) 

ChampSim completed all CPUs

Region of Interest Statistics

CPU 0 cumulative IPC: 0.310343 instructions: 50000000 cycles: 161112199
ITLB TOTAL     ACCESS:    8715037  HIT:    8697834  MISS:      17203  HIT %:    99.8026  MISS %:   0.197394   MPKI: 0.34406
ITLB LOAD TRANSLATION ACCESS:    8715037  HIT:    8697834  MISS:      17203  HIT %:    99.8026  MISS %:   0.197394   MPKI: 0.34406
ITLB PREFETCH  REQUESTED:          0  ISSUED:          0  USEFUL:          0  USELESS:          0
ITLB USEFUL LOAD PREFETCHES:          0 PREFETCH ISSUED TO LOWER LEVEL:          0  ACCURACY: -nan
ITLB TIMELY PREFETCHES:          0 LATE PREFETCHES: 0 DROPPED PREFETCHES: 0
ITLB PREFETCHES SAME FILL-ORIGIN LEVEL: 0 DIFFERENT FILL-ORIGIN LEVEL: 0
ITLB AVERAGE MISS LATENCY: 12.3113 cycles
ITLB RQ	ACCESS:    9803170	FORWARD:          0	MERGED:    1080516	TO_CACHE:    8722654

DTLB TOTAL     ACCESS:   14716903  HIT:   13759141  MISS:     957762  HIT %:    93.4921  MISS %:     6.5079   MPKI: 19.1552
DTLB LOAD TRANSLATION ACCESS:   14716903  HIT:   13759141  MISS:     957762  HIT %:    93.4921  MISS %:     6.5079   MPKI: 19.1552
DTLB PREFETCH  REQUESTED:          0  ISSUED:          0  USEFUL:          0  USELESS:          0
DTLB USEFUL LOAD PREFETCHES:          0 PREFETCH ISSUED TO LOWER LEVEL:          0  ACCURACY: -nan
DTLB TIMELY PREFETCHES:          0 LATE PREFETCHES: 0 DROPPED PREFETCHES: 0
DTLB PREFETCHES SAME FILL-ORIGIN LEVEL: 0 DIFFERENT FILL-ORIGIN LEVEL: 0
DTLB AVERAGE MISS LATENCY: 15.8585 cycles
DTLB RQ	ACCESS:   17875036	FORWARD:          0	MERGED:    3113412	TO_CACHE:   14761624

STLB TOTAL     ACCESS:    2217875  HIT:    1811967  MISS:     405908  HIT %:    81.6983  MISS %:    18.3017   MPKI: 8.11816
STLB LOAD TRANSLATION ACCESS:     974965  HIT:     877929  MISS:      97036  HIT %:    90.0472  MISS %:    9.95277   MPKI: 1.94072
STLB TRANSLATION FROM L1D PREFETCHER ACCESS:    1242910  HIT:     934038  MISS:     308872  HIT %:    75.1493  MISS %:    24.8507   MPKI: 6.17744
STLB PREFETCH  REQUESTED:          0  ISSUED:          0  USEFUL:     192603  USELESS:     116017
STLB USEFUL LOAD PREFETCHES:     192603 PREFETCH ISSUED TO LOWER LEVEL:          0  ACCURACY: inf
STLB TIMELY PREFETCHES:     192603 LATE PREFETCHES: 520 DROPPED PREFETCHES: 0
STLB PREFETCHES SAME FILL-ORIGIN LEVEL: 0 DIFFERENT FILL-ORIGIN LEVEL: 0
STLB AVERAGE MISS LATENCY: 107.034 cycles
STLB RQ	ACCESS:    2352762	FORWARD:          0	MERGED:     133040	TO_CACHE:    2219722

STLB Hit, L1D data hit: 0
STLB Hit, L2C data hit: 0
STLB Hit, LLC data hit: 0
STLB Hit, LLC data miss: 0
STLB STLB hints to L2: 0
L1D TOTAL     ACCESS:   18782606  HIT:   16937484  MISS:    1845122  HIT %:    90.1764  MISS %:    9.82357   MPKI: 36.9024
L1D LOAD      ACCESS:    9522865  HIT:    8988473  MISS:     534392  HIT %:    94.3883  MISS %:    5.61167   MPKI: 10.6878
L1D RFO       ACCESS:    7904870  HIT:    7745110  MISS:     159760  HIT %:     97.979  MISS %:    2.02103   MPKI: 3.1952
L1D PREFETCH  ACCESS:    1354871  HIT:     203901  MISS:    1150970  HIT %:    15.0495  MISS %:    84.9505   MPKI: 23.0194
AGUS PREFETCH L1 MISS: 0
L1D PREFETCH  REQUESTED:    2930272  ISSUED:    2763773  USEFUL:     526037  USELESS:     625039
L1D USEFUL LOAD PREFETCHES:     526037 PREFETCH ISSUED TO LOWER LEVEL:    1156694  ACCURACY: 45.4776
L1D TIMELY PREFETCHES:     526037 LATE PREFETCHES: 5476 DROPPED PREFETCHES: 0
L1D PREFETCHES SAME FILL-ORIGIN LEVEL: 1156694 DIFFERENT FILL-ORIGIN LEVEL: 0
L1D AVERAGE MISS LATENCY: 144.249 cycles
L1D RQ	ACCESS:   14104457	FORWARD:          0	MERGED:    4059077	TO_CACHE:    9581424
L1D WQ	ACCESS:    8476021	FORWARD:     463970	MERGED:     182409	TO_CACHE:    8293612
L1D PQ	ACCESS:    1385976	FORWARD:          0	MERGED:       8165	TO_CACHE:    1377797

L1D UNIQUE REGIONS ACCESSED: 0
L1D REGIONS CONFLICTS: 0
L1D Cross Page Prefetch Requests: 2396494
L1D Same Page Prefetch Requests: 85198
L1D ROI Sum of L1D PQ occupancy: 74400607
L1D PREFETCHES PUSHED FROM L2C: 0
L1I TOTAL     ACCESS:    9802869  HIT:    9801328  MISS:       1541  HIT %:    99.9843  MISS %:  0.0157199   MPKI: 0.03082
L1I LOAD      ACCESS:    9802869  HIT:    9801328  MISS:       1541  HIT %:    99.9843  MISS %:  0.0157199   MPKI: 0.03082
L1I PREFETCH  REQUESTED:          0  ISSUED:          0  USEFUL:          0  USELESS:          0
L1I USEFUL LOAD PREFETCHES:          0 PREFETCH ISSUED TO LOWER LEVEL:          0  ACCURACY: -nan
L1I TIMELY PREFETCHES:          0 LATE PREFETCHES: 0 DROPPED PREFETCHES: 0
L1I PREFETCHES SAME FILL-ORIGIN LEVEL: 0 DIFFERENT FILL-ORIGIN LEVEL: 0
L1I AVERAGE MISS LATENCY: 158.713 cycles
L1I RQ	ACCESS:   14755589	FORWARD:          0	MERGED:    4952419	TO_CACHE:    9803170

BTB TOTAL     ACCESS:   10008119  HIT:    9487971  MISS:     520148  HIT %:    94.8027  MISS %:    5.19726   MPKI: 10.403
BTB BRANCH_DIRECT_JUMP	ACCESS:     964405  HIT:     964243  MISS:        162
BTB BRANCH_INDIRECT	ACCESS:     140341  HIT:     116325  MISS:      24016
BTB BRANCH_CONDITIONAL	ACCESS:    5906166  HIT:    5905777  MISS:        389
BTB BRANCH_DIRECT_CALL	ACCESS:    1294152  HIT:    1293861  MISS:        291
BTB BRANCH_INDIRECT_CALL	ACCESS:     204449  HIT:     203146  MISS:       1303
BTB BRANCH_RETURN	ACCESS:    1498606  HIT:    1004619  MISS:     493987
BTB BRANCH_OTHER ACCESS:          0  HIT:          0  MISS:          0

L2C TOTAL     ACCESS:    2802008  HIT:    1357180  MISS:    1444828  HIT %:     48.436  MISS %:     51.564   MPKI: 28.8966
L2C LOAD      ACCESS:     530433  HIT:     208975  MISS:     321458  HIT %:    39.3971  MISS %:    60.6029   MPKI: 6.42916
L2C DATA LOAD MPKI: 6.40212
L2C INSTRUCTION LOAD MPKI: 0.02704
L2C RFO       ACCESS:     159509  HIT:      17327  MISS:     142182  HIT %:    10.8627  MISS %:    89.1373   MPKI: 2.84364
L2C PREFETCH  ACCESS:    1156679  HIT:     319966  MISS:     836713  HIT %:    27.6625  MISS %:    72.3375   MPKI: 16.7343
AGUS PREFETCH L1 MISS: 0
L2C DATA PREFETCH MPKI: 16.7343
L2C INSTRUCTION PREFETCH MPKI: 0
L2C WRITEBACK ACCESS:     508680  HIT:     507225  MISS:       1455  HIT %:     99.714  MISS %:   0.286034   MPKI: 0.0291
L2C LOAD TRANSLATION ACCESS:     105359  HIT:      75971  MISS:      29388  HIT %:    72.1068  MISS %:    27.8932   MPKI: 0.58776
L2C TRANSLATION FROM L1D PREFETCHER ACCESS:     341348  HIT:     227716  MISS:     113632  HIT %:    66.7108  MISS %:    33.2892   MPKI: 2.27264
L2C PREFETCH  REQUESTED:          0  ISSUED:          0  USEFUL:     166104  USELESS:     784291
L2C USEFUL LOAD PREFETCHES:     166104 PREFETCH ISSUED TO LOWER LEVEL:     836713  ACCURACY: 19.852
L2C TIMELY PREFETCHES:     166104 LATE PREFETCHES: 0 DROPPED PREFETCHES: 0
L2C PREFETCHES SAME FILL-ORIGIN LEVEL: 0 DIFFERENT FILL-ORIGIN LEVEL: 0
L2C AVERAGE MISS LATENCY: 172.268 cycles
L2C RQ	ACCESS:    1136676	FORWARD:          0	MERGED:          0	TO_CACHE:    1136649
L2C WQ	ACCESS:     508680	FORWARD:         42	MERGED:          0	TO_CACHE:     508680
L2C PQ	ACCESS:    1156694	FORWARD:          0	MERGED:          0	TO_CACHE:    1156679

L2C Instructions Evicting Data 1247
L2C Translations Evicting Data 128289
L2C Data Evicting Data 1169037
L2C Instructions Evicting Instructions 6
L2C Translations Evicting Instructions 123
L2C Data Evicting Instructions 1224
L2C Instructions Evicting Translations 99
L2C Translations Evicting Translations 14608
L2C Data Evicting Translations 128740
L2C Dense regions hint from L2: 0
PSCL5 TOTAL     ACCESS:     405908  HIT:     405908  MISS:          0  HIT %:        100  MISS %:          0   MPKI: 0
PSCL5 LOAD TRANSLATION ACCESS:      96516  HIT:      96516  MISS:          0  HIT %:        100  MISS %:          0   MPKI: 0
PSCL5 TRANSLATION FROM L1D PREFETCHER ACCESS:     309392  HIT:     309392  MISS:          0  HIT %:        100  MISS %:          0   MPKI: 0
PSCL5 PREFETCH  REQUESTED:          0  ISSUED:          0  USEFUL:          0  USELESS:          0
PSCL5 USEFUL LOAD PREFETCHES:          0 PREFETCH ISSUED TO LOWER LEVEL:          0  ACCURACY: -nan
PSCL5 TIMELY PREFETCHES:          0 LATE PREFETCHES: 0 DROPPED PREFETCHES: 0
PSCL5 PREFETCHES SAME FILL-ORIGIN LEVEL: 0 DIFFERENT FILL-ORIGIN LEVEL: 0

PSCL4 TOTAL     ACCESS:     405908  HIT:     405908  MISS:          0  HIT %:        100  MISS %:          0   MPKI: 0
PSCL4 LOAD TRANSLATION ACCESS:      96516  HIT:      96516  MISS:          0  HIT %:        100  MISS %:          0   MPKI: 0
PSCL4 TRANSLATION FROM L1D PREFETCHER ACCESS:     309392  HIT:     309392  MISS:          0  HIT %:        100  MISS %:          0   MPKI: 0
PSCL4 PREFETCH  REQUESTED:          0  ISSUED:          0  USEFUL:          0  USELESS:          0
PSCL4 USEFUL LOAD PREFETCHES:          0 PREFETCH ISSUED TO LOWER LEVEL:          0  ACCURACY: -nan
PSCL4 TIMELY PREFETCHES:          0 LATE PREFETCHES: 0 DROPPED PREFETCHES: 0
PSCL4 PREFETCHES SAME FILL-ORIGIN LEVEL: 0 DIFFERENT FILL-ORIGIN LEVEL: 0

PSCL3 TOTAL     ACCESS:     405908  HIT:     405908  MISS:          0  HIT %:        100  MISS %:          0   MPKI: 0
PSCL3 LOAD TRANSLATION ACCESS:      96516  HIT:      96516  MISS:          0  HIT %:        100  MISS %:          0   MPKI: 0
PSCL3 TRANSLATION FROM L1D PREFETCHER ACCESS:     309392  HIT:     309392  MISS:          0  HIT %:        100  MISS %:          0   MPKI: 0
PSCL3 PREFETCH  REQUESTED:          0  ISSUED:          0  USEFUL:          0  USELESS:          0
PSCL3 USEFUL LOAD PREFETCHES:          0 PREFETCH ISSUED TO LOWER LEVEL:          0  ACCURACY: -nan
PSCL3 TIMELY PREFETCHES:          0 LATE PREFETCHES: 0 DROPPED PREFETCHES: 0
PSCL3 PREFETCHES SAME FILL-ORIGIN LEVEL: 0 DIFFERENT FILL-ORIGIN LEVEL: 0

PSCL2 TOTAL     ACCESS:     405908  HIT:     365108  MISS:      40800  HIT %:    89.9485  MISS %:    10.0515   MPKI: 0.816
PSCL2 LOAD TRANSLATION ACCESS:     128472  HIT:      87672  MISS:      40800  HIT %:    68.2421  MISS %:    31.7579   MPKI: 0.816
PSCL2 TRANSLATION FROM L1D PREFETCHER ACCESS:     277436  HIT:     277436  MISS:          0  HIT %:        100  MISS %:          0   MPKI: 0
PSCL2 PREFETCH  REQUESTED:          0  ISSUED:          0  USEFUL:          0  USELESS:          0
PSCL2 USEFUL LOAD PREFETCHES:          0 PREFETCH ISSUED TO LOWER LEVEL:          0  ACCURACY: -nan
PSCL2 TIMELY PREFETCHES:          0 LATE PREFETCHES: 0 DROPPED PREFETCHES: 0
PSCL2 PREFETCHES SAME FILL-ORIGIN LEVEL: 0 DIFFERENT FILL-ORIGIN LEVEL: 0

LLC TOTAL     ACCESS:    1889439  HIT:     855165  MISS:    1034274  HIT %:    45.2603  MISS %:    54.7397   MPKI: 20.6855
LLC LOAD      ACCESS:     321457  HIT:      84853  MISS:     236604  HIT %:    26.3964  MISS %:    73.6036   MPKI: 4.73208
LLC RFO       ACCESS:     142181  HIT:      21504  MISS:     120677  HIT %:    15.1244  MISS %:    84.8756   MPKI: 2.41354
LLC PREFETCH  ACCESS:     836711  HIT:     194653  MISS:     642058  HIT %:    23.2641  MISS %:    76.7359   MPKI: 12.8412
AGUS PREFETCH L1 MISS: 0
LLC WRITEBACK ACCESS:     446070  HIT:     445148  MISS:        922  HIT %:    99.7933  MISS %:   0.206694   MPKI: 0.01844
LLC LOAD TRANSLATION ACCESS:      29388  HIT:      23976  MISS:       5412  HIT %:    81.5843  MISS %:    18.4157   MPKI: 0.10824
LLC TRANSLATION FROM L1D PREFETCHER ACCESS:     113632  HIT:      85031  MISS:      28601  HIT %:    74.8302  MISS %:    25.1698   MPKI: 0.57202
LLC PREFETCH  REQUESTED:          0  ISSUED:          0  USEFUL:      42940  USELESS:     626029
LLC USEFUL LOAD PREFETCHES:      42940 PREFETCH ISSUED TO LOWER LEVEL:     642058  ACCURACY: 6.68787
LLC TIMELY PREFETCHES:      42940 LATE PREFETCHES: 0 DROPPED PREFETCHES: 0
LLC PREFETCHES SAME FILL-ORIGIN LEVEL: 0 DIFFERENT FILL-ORIGIN LEVEL: 0
LLC AVERAGE MISS LATENCY: 198.742 cycles
LLC RQ	ACCESS:     606660	FORWARD:          0	MERGED:          0	TO_CACHE:     606658
LLC WQ	ACCESS:     446070	FORWARD:          4	MERGED:          0	TO_CACHE:     446070
LLC PQ	ACCESS:     836713	FORWARD:          0	MERGED:          0	TO_CACHE:     836711

LLC Dense regions hint to LLC: 0

RAW hits: 770975
Loads Generated: 14875432
Loads sent to L1D: 14104457
Stores Generated: 8476008
Stores sent to L1D: 8476021
Major fault: 0 Minor fault: 33441
Allocated PAGES: 33441
Prefetcher final stats
Training Unit Size: 519
Addr table size: 385423 385450


Triggers: 1219043
No Prediction: 466851 38.2965
Stream end: 483762
No translation: 489418077 40147.7
Predictions: 2481692 203.577


Stream divergence: 239198 19.6218
Stream divergence -- new stream: 0

DRAM Statistics
 CHANNEL 0
 RQ ROW_BUFFER_HIT:     118655  ROW_BUFFER_MISS:     914673
 DBUS_CONGESTED:        131
 WQ ROW_BUFFER_HIT:      45650  ROW_BUFFER_MISS:     325525  FULL:          0

 AVG_CONGESTED_CYCLE: 4
 All warmup complete: 2
Channel 0 Bank busy for read cycles: 0
Channel 0 Bank busy for write cycles: 0
Channel 0
Rank 0
0banks busy for read cycles: 65780501
0banks busy for write cycles: 100722
1banks busy for read cycles: 30558180
1banks busy for write cycles: 12519941
2banks busy for read cycles: 15254642
2banks busy for write cycles: 6460581
3banks busy for read cycles: 8289284
3banks busy for write cycles: 3993176
4banks busy for read cycles: 5261609
4banks busy for write cycles: 2649061
5banks busy for read cycles: 3596291
5banks busy for write cycles: 1764340
6banks busy for read cycles: 1999888
6banks busy for write cycles: 1095322
7banks busy for read cycles: 709191
7banks busy for write cycles: 633992
8banks busy for read cycles: 151116
8banks busy for write cycles: 294363

CPU 0 Branch Prediction Accuracy: 94.0755% MPKI: 14.2353 Average ROB Occupancy at Mispredict: 25.1838
Branch types
NOT_BRANCH: 37985796 75.9716%
BRANCH_DIRECT_JUMP: 964405 1.92881%
BRANCH_INDIRECT: 140341 0.280682%
BRANCH_CONDITIONAL: 7911981 15.824%
BRANCH_DIRECT_CALL: 1294152 2.5883%
BRANCH_INDIRECT_CALL: 204449 0.408898%
BRANCH_RETURN: 1498606 2.99721%
BRANCH_OTHER: 0 0%

DRAM PAGES: 1048576
Allocated PAGES: 33441
