
*** ChampSim Multicore Out-of-Order Simulator ***

Warmup Instructions: 50000000
Simulation Instructions: 50000000
Number of CPUs: 1
LLC sets: 2048
LLC ways: 16
Off-chip DRAM Size: 4096 MB Channels: 1 Width: 64-bit Data Rate: 6400 MT/s
CPU 0 runs traces/SPEC-CPU2017/471.omnetpp-188B.champsimtrace.xz
.xz
CPU 0 Bimodal branch predictor
BTB has LRU replacement policy
ITLB has LRU replacement policy
DTLB has LRU replacement policy
STLB has LRU replacement policy
L1I has LRU replacement policy
L1D has LRU replacement policy
L2C has LRU replacement policy
LLC has LRU replacement policy
Heartbeat CPU 0 instructions: 10000001 cycles: 3280595 heartbeat IPC: 3.04823 cumulative IPC: 3.04823 (Simulation time: 0 hr 4 min 24 sec) 
Heartbeat CPU 0 instructions: 20000000 cycles: 6515245 heartbeat IPC: 3.09152 cumulative IPC: 3.06972 (Simulation time: 0 hr 8 min 48 sec) 
Heartbeat CPU 0 instructions: 30000000 cycles: 9776788 heartbeat IPC: 3.06603 cumulative IPC: 3.06849 (Simulation time: 0 hr 13 min 29 sec) 
Heartbeat CPU 0 instructions: 40000000 cycles: 13025872 heartbeat IPC: 3.07779 cumulative IPC: 3.07081 (Simulation time: 0 hr 18 min 3 sec) 
Heartbeat CPU 0 instructions: 50000003 cycles: 16264682 heartbeat IPC: 3.08755 cumulative IPC: 3.07415 (Simulation time: 0 hr 22 min 41 sec) 

Warmup complete CPU 0 instructions: 50000003 cycles: 16264682 (Simulation time: 0 hr 22 min 41 sec) 

Heartbeat CPU 0 instructions: 60000000 cycles: 54964555 heartbeat IPC: 0.258399 cumulative IPC: 0.258399 (Simulation time: 0 hr 24 min 37 sec) 
Heartbeat CPU 0 instructions: 70000001 cycles: 92365858 heartbeat IPC: 0.26737 cumulative IPC: 0.262808 (Simulation time: 0 hr 26 min 41 sec) 
Heartbeat CPU 0 instructions: 80000000 cycles: 130677299 heartbeat IPC: 0.261019 cumulative IPC: 0.262209 (Simulation time: 0 hr 28 min 46 sec) 
Heartbeat CPU 0 instructions: 90000003 cycles: 169585642 heartbeat IPC: 0.257014 cumulative IPC: 0.260891 (Simulation time: 0 hr 30 min 48 sec) 
Heartbeat CPU 0 instructions: 100000000 cycles: 208230591 heartbeat IPC: 0.258766 cumulative IPC: 0.260463 (Simulation time: 0 hr 32 min 56 sec) 
Finished CPU 0 instructions: 50000000 cycles: 191965918 cumulative IPC: 0.260463 (Simulation time: 0 hr 32 min 56 sec) 

ChampSim completed all CPUs

Region of Interest Statistics

CPU 0 cumulative IPC: 0.260463 instructions: 50000000 cycles: 191965918
ITLB TOTAL     ACCESS:    8714749  HIT:    8697546  MISS:      17203  HIT %:    99.8026  MISS %:   0.197401   MPKI: 0.34406
ITLB LOAD TRANSLATION ACCESS:    8714749  HIT:    8697546  MISS:      17203  HIT %:    99.8026  MISS %:   0.197401   MPKI: 0.34406
ITLB PREFETCH  REQUESTED:          0  ISSUED:          0  USEFUL:          0  USELESS:          0
ITLB USEFUL LOAD PREFETCHES:          0 PREFETCH ISSUED TO LOWER LEVEL:          0  ACCURACY: -nan
ITLB TIMELY PREFETCHES:          0 LATE PREFETCHES: 0 DROPPED PREFETCHES: 0
ITLB PREFETCHES SAME FILL-ORIGIN LEVEL: 0 DIFFERENT FILL-ORIGIN LEVEL: 0
ITLB AVERAGE MISS LATENCY: 12.3258 cycles
ITLB RQ	ACCESS:    9802755	FORWARD:          0	MERGED:    1080388	TO_CACHE:    8722367

DTLB TOTAL     ACCESS:   14668374  HIT:   13710857  MISS:     957517  HIT %:    93.4722  MISS %:    6.52777   MPKI: 19.1503
DTLB LOAD TRANSLATION ACCESS:   14668374  HIT:   13710857  MISS:     957517  HIT %:    93.4722  MISS %:    6.52777   MPKI: 19.1503
DTLB PREFETCH  REQUESTED:          0  ISSUED:          0  USEFUL:          0  USELESS:          0
DTLB USEFUL LOAD PREFETCHES:          0 PREFETCH ISSUED TO LOWER LEVEL:          0  ACCURACY: -nan
DTLB TIMELY PREFETCHES:          0 LATE PREFETCHES: 0 DROPPED PREFETCHES: 0
DTLB PREFETCHES SAME FILL-ORIGIN LEVEL: 0 DIFFERENT FILL-ORIGIN LEVEL: 0
DTLB AVERAGE MISS LATENCY: 18.679 cycles
DTLB RQ	ACCESS:   17840258	FORWARD:          0	MERGED:    3127214	TO_CACHE:   14713044

STLB TOTAL     ACCESS:    4438227  HIT:    4079335  MISS:     358892  HIT %:    91.9136  MISS %:    8.08638   MPKI: 7.17784
STLB LOAD TRANSLATION ACCESS:     974720  HIT:     849660  MISS:     125060  HIT %:    87.1696  MISS %:    12.8304   MPKI: 2.5012
STLB TRANSLATION FROM L1D PREFETCHER ACCESS:    3463507  HIT:    3229675  MISS:     233832  HIT %:    93.2487  MISS %:    6.75131   MPKI: 4.67664
STLB PREFETCH  REQUESTED:          0  ISSUED:          0  USEFUL:     165558  USELESS:      68085
STLB USEFUL LOAD PREFETCHES:     165558 PREFETCH ISSUED TO LOWER LEVEL:          0  ACCURACY: inf
STLB TIMELY PREFETCHES:     165558 LATE PREFETCHES: 432 DROPPED PREFETCHES: 0
STLB PREFETCHES SAME FILL-ORIGIN LEVEL: 0 DIFFERENT FILL-ORIGIN LEVEL: 0
STLB AVERAGE MISS LATENCY: 105.432 cycles
STLB RQ	ACCESS:    4982832	FORWARD:          0	MERGED:     543144	TO_CACHE:    4439688

STLB Hit, L1D data hit: 0
STLB Hit, L2C data hit: 0
STLB Hit, LLC data hit: 0
STLB Hit, LLC data miss: 0
STLB STLB hints to L2: 0
L1D TOTAL     ACCESS:   21333843  HIT:   19244817  MISS:    2089026  HIT %:    90.2079  MISS %:    9.79208   MPKI: 41.7805
L1D LOAD      ACCESS:    9480857  HIT:    8698785  MISS:     782072  HIT %:     91.751  MISS %:    8.24896   MPKI: 15.6414
L1D RFO       ACCESS:    7898800  HIT:    7745948  MISS:     152852  HIT %:    98.0649  MISS %:    1.93513   MPKI: 3.05704
L1D PREFETCH  ACCESS:    3954186  HIT:    2800084  MISS:    1154102  HIT %:    70.8132  MISS %:    29.1868   MPKI: 23.082
AGUS PREFETCH L1 MISS: 0
L1D PREFETCH  REQUESTED:    8435137  ISSUED:    8016391  USEFUL:     295864  USELESS:     858263
L1D USEFUL LOAD PREFETCHES:     295864 PREFETCH ISSUED TO LOWER LEVEL:    1171520  ACCURACY: 25.2547
L1D TIMELY PREFETCHES:     295864 LATE PREFETCHES: 16455 DROPPED PREFETCHES: 0
L1D PREFETCHES SAME FILL-ORIGIN LEVEL: 1171520 DIFFERENT FILL-ORIGIN LEVEL: 0
L1D AVERAGE MISS LATENCY: 149.589 cycles
L1D RQ	ACCESS:   14062069	FORWARD:          0	MERGED:    4044712	TO_CACHE:    9565566
L1D WQ	ACCESS:    8476021	FORWARD:     451955	MERGED:     201329	TO_CACHE:    8274692
L1D PQ	ACCESS:    4008279	FORWARD:          0	MERGED:          3	TO_CACHE:    4008112

L1D UNIQUE REGIONS ACCESSED: 0
L1D REGIONS CONFLICTS: 0
L1D Cross Page Prefetch Requests: 3634538
L1D Same Page Prefetch Requests: 3744207
L1D ROI Sum of L1D PQ occupancy: 110773093
L1D PREFETCHES PUSHED FROM L2C: 0
L1I TOTAL     ACCESS:    9802457  HIT:    9800916  MISS:       1541  HIT %:    99.9843  MISS %:  0.0157205   MPKI: 0.03082
L1I LOAD      ACCESS:    9802457  HIT:    9800916  MISS:       1541  HIT %:    99.9843  MISS %:  0.0157205   MPKI: 0.03082
L1I PREFETCH  REQUESTED:          0  ISSUED:          0  USEFUL:          0  USELESS:          0
L1I USEFUL LOAD PREFETCHES:          0 PREFETCH ISSUED TO LOWER LEVEL:          0  ACCURACY: -nan
L1I TIMELY PREFETCHES:          0 LATE PREFETCHES: 0 DROPPED PREFETCHES: 0
L1I PREFETCHES SAME FILL-ORIGIN LEVEL: 0 DIFFERENT FILL-ORIGIN LEVEL: 0
L1I AVERAGE MISS LATENCY: 160.898 cycles
L1I RQ	ACCESS:   14754273	FORWARD:          0	MERGED:    4951518	TO_CACHE:    9802755

BTB TOTAL     ACCESS:   10008119  HIT:    9487971  MISS:     520148  HIT %:    94.8027  MISS %:    5.19726   MPKI: 10.403
BTB BRANCH_DIRECT_JUMP	ACCESS:     964405  HIT:     964243  MISS:        162
BTB BRANCH_INDIRECT	ACCESS:     140341  HIT:     116325  MISS:      24016
BTB BRANCH_CONDITIONAL	ACCESS:    5906166  HIT:    5905777  MISS:        389
BTB BRANCH_DIRECT_CALL	ACCESS:    1294152  HIT:    1293861  MISS:        291
BTB BRANCH_INDIRECT_CALL	ACCESS:     204449  HIT:     203146  MISS:       1303
BTB BRANCH_RETURN	ACCESS:    1498606  HIT:    1004619  MISS:     493987
BTB BRANCH_OTHER ACCESS:          0  HIT:          0  MISS:          0

L2C TOTAL     ACCESS:    2995334  HIT:    1250370  MISS:    1744964  HIT %:    41.7439  MISS %:    58.2561   MPKI: 34.8993
L2C LOAD      ACCESS:     767107  HIT:     159930  MISS:     607177  HIT %:    20.8485  MISS %:    79.1515   MPKI: 12.1435
L2C DATA LOAD MPKI: 12.1163
L2C INSTRUCTION LOAD MPKI: 0.02726
L2C RFO       ACCESS:     151888  HIT:      16462  MISS:     135426  HIT %:    10.8382  MISS %:    89.1618   MPKI: 2.70852
L2C PREFETCH  ACCESS:    1171476  HIT:     322091  MISS:     849385  HIT %:    27.4945  MISS %:    72.5055   MPKI: 16.9877
AGUS PREFETCH L1 MISS: 0
L2C DATA PREFETCH MPKI: 16.9877
L2C INSTRUCTION PREFETCH MPKI: 0
L2C WRITEBACK ACCESS:     510746  HIT:     508384  MISS:       2362  HIT %:    99.5375  MISS %:   0.462461   MPKI: 0.04724
L2C LOAD TRANSLATION ACCESS:     134867  HIT:      90212  MISS:      44655  HIT %:    66.8896  MISS %:    33.1104   MPKI: 0.8931
L2C TRANSLATION FROM L1D PREFETCHER ACCESS:     259250  HIT:     153291  MISS:     105959  HIT %:    59.1286  MISS %:    40.8714   MPKI: 2.11918
L2C PREFETCH  REQUESTED:          0  ISSUED:          0  USEFUL:     107469  USELESS:     848980
L2C USEFUL LOAD PREFETCHES:     107469 PREFETCH ISSUED TO LOWER LEVEL:     849385  ACCURACY: 12.6526
L2C TIMELY PREFETCHES:     107469 LATE PREFETCHES: 0 DROPPED PREFETCHES: 0
L2C PREFETCHES SAME FILL-ORIGIN LEVEL: 0 DIFFERENT FILL-ORIGIN LEVEL: 0
L2C AVERAGE MISS LATENCY: 168.232 cycles
L2C RQ	ACCESS:    1313164	FORWARD:          0	MERGED:          0	TO_CACHE:    1313112
L2C WQ	ACCESS:     510746	FORWARD:         96	MERGED:          0	TO_CACHE:     510746
L2C PQ	ACCESS:    1171520	FORWARD:          0	MERGED:          0	TO_CACHE:    1171476

L2C Instructions Evicting Data 1271
L2C Translations Evicting Data 136983
L2C Data Evicting Data 1452071
L2C Instructions Evicting Instructions 6
L2C Translations Evicting Instructions 98
L2C Data Evicting Instructions 1260
L2C Instructions Evicting Translations 86
L2C Translations Evicting Translations 13533
L2C Data Evicting Translations 137294
L2C Dense regions hint from L2: 0
PSCL5 TOTAL     ACCESS:     358892  HIT:     358892  MISS:          0  HIT %:        100  MISS %:          0   MPKI: 0
PSCL5 LOAD TRANSLATION ACCESS:     124628  HIT:     124628  MISS:          0  HIT %:        100  MISS %:          0   MPKI: 0
PSCL5 TRANSLATION FROM L1D PREFETCHER ACCESS:     234264  HIT:     234264  MISS:          0  HIT %:        100  MISS %:          0   MPKI: 0
PSCL5 PREFETCH  REQUESTED:          0  ISSUED:          0  USEFUL:          0  USELESS:          0
PSCL5 USEFUL LOAD PREFETCHES:          0 PREFETCH ISSUED TO LOWER LEVEL:          0  ACCURACY: -nan
PSCL5 TIMELY PREFETCHES:          0 LATE PREFETCHES: 0 DROPPED PREFETCHES: 0
PSCL5 PREFETCHES SAME FILL-ORIGIN LEVEL: 0 DIFFERENT FILL-ORIGIN LEVEL: 0

PSCL4 TOTAL     ACCESS:     358892  HIT:     358892  MISS:          0  HIT %:        100  MISS %:          0   MPKI: 0
PSCL4 LOAD TRANSLATION ACCESS:     124628  HIT:     124628  MISS:          0  HIT %:        100  MISS %:          0   MPKI: 0
PSCL4 TRANSLATION FROM L1D PREFETCHER ACCESS:     234264  HIT:     234264  MISS:          0  HIT %:        100  MISS %:          0   MPKI: 0
PSCL4 PREFETCH  REQUESTED:          0  ISSUED:          0  USEFUL:          0  USELESS:          0
PSCL4 USEFUL LOAD PREFETCHES:          0 PREFETCH ISSUED TO LOWER LEVEL:          0  ACCURACY: -nan
PSCL4 TIMELY PREFETCHES:          0 LATE PREFETCHES: 0 DROPPED PREFETCHES: 0
PSCL4 PREFETCHES SAME FILL-ORIGIN LEVEL: 0 DIFFERENT FILL-ORIGIN LEVEL: 0

PSCL3 TOTAL     ACCESS:     358892  HIT:     358892  MISS:          0  HIT %:        100  MISS %:          0   MPKI: 0
PSCL3 LOAD TRANSLATION ACCESS:     124628  HIT:     124628  MISS:          0  HIT %:        100  MISS %:          0   MPKI: 0
PSCL3 TRANSLATION FROM L1D PREFETCHER ACCESS:     234264  HIT:     234264  MISS:          0  HIT %:        100  MISS %:          0   MPKI: 0
PSCL3 PREFETCH  REQUESTED:          0  ISSUED:          0  USEFUL:          0  USELESS:          0
PSCL3 USEFUL LOAD PREFETCHES:          0 PREFETCH ISSUED TO LOWER LEVEL:          0  ACCURACY: -nan
PSCL3 TIMELY PREFETCHES:          0 LATE PREFETCHES: 0 DROPPED PREFETCHES: 0
PSCL3 PREFETCHES SAME FILL-ORIGIN LEVEL: 0 DIFFERENT FILL-ORIGIN LEVEL: 0

PSCL2 TOTAL     ACCESS:     358892  HIT:     323666  MISS:      35226  HIT %:    90.1848  MISS %:    9.81521   MPKI: 0.70452
PSCL2 LOAD TRANSLATION ACCESS:     149614  HIT:     114388  MISS:      35226  HIT %:    76.4554  MISS %:    23.5446   MPKI: 0.70452
PSCL2 TRANSLATION FROM L1D PREFETCHER ACCESS:     209278  HIT:     209278  MISS:          0  HIT %:        100  MISS %:          0   MPKI: 0
PSCL2 PREFETCH  REQUESTED:          0  ISSUED:          0  USEFUL:          0  USELESS:          0
PSCL2 USEFUL LOAD PREFETCHES:          0 PREFETCH ISSUED TO LOWER LEVEL:          0  ACCURACY: -nan
PSCL2 TIMELY PREFETCHES:          0 LATE PREFETCHES: 0 DROPPED PREFETCHES: 0
PSCL2 PREFETCHES SAME FILL-ORIGIN LEVEL: 0 DIFFERENT FILL-ORIGIN LEVEL: 0

LLC TOTAL     ACCESS:    2191513  HIT:     852416  MISS:    1339097  HIT %:    38.8962  MISS %:    61.1038   MPKI: 26.7819
LLC LOAD      ACCESS:     607175  HIT:     102425  MISS:     504750  HIT %:    16.8691  MISS %:    83.1309   MPKI: 10.095
LLC RFO       ACCESS:     135426  HIT:      17720  MISS:     117706  HIT %:    13.0846  MISS %:    86.9154   MPKI: 2.35412
LLC PREFETCH  ACCESS:     849385  HIT:     176356  MISS:     673029  HIT %:    20.7628  MISS %:    79.2372   MPKI: 13.4606
AGUS PREFETCH L1 MISS: 0
LLC WRITEBACK ACCESS:     448913  HIT:     447222  MISS:       1691  HIT %:    99.6233  MISS %:   0.376688   MPKI: 0.03382
LLC LOAD TRANSLATION ACCESS:      44655  HIT:      34014  MISS:      10641  HIT %:    76.1706  MISS %:    23.8294   MPKI: 0.21282
LLC TRANSLATION FROM L1D PREFETCHER ACCESS:     105959  HIT:      74679  MISS:      31280  HIT %:    70.4791  MISS %:    29.5209   MPKI: 0.6256
LLC PREFETCH  REQUESTED:          0  ISSUED:          0  USEFUL:      47125  USELESS:     659732
LLC USEFUL LOAD PREFETCHES:      47125 PREFETCH ISSUED TO LOWER LEVEL:     673029  ACCURACY: 7.00193
LLC TIMELY PREFETCHES:      47125 LATE PREFETCHES: 0 DROPPED PREFETCHES: 0
LLC PREFETCHES SAME FILL-ORIGIN LEVEL: 0 DIFFERENT FILL-ORIGIN LEVEL: 0
LLC AVERAGE MISS LATENCY: 180.127 cycles
LLC RQ	ACCESS:     893217	FORWARD:          0	MERGED:          0	TO_CACHE:     893215
LLC WQ	ACCESS:     448913	FORWARD:          2	MERGED:          0	TO_CACHE:     448913
LLC PQ	ACCESS:     849385	FORWARD:          0	MERGED:          0	TO_CACHE:     849385

LLC Dense regions hint to LLC: 0

RAW hits: 813366
Loads Generated: 14875435
Loads sent to L1D: 14062069
Stores Generated: 8476009
Stores sent to L1D: 8476021
Major fault: 0 Minor fault: 33441
Allocated PAGES: 33441

stream: 
stream:times selected: 4497094
stream:pref_reqs: 4397107
stream:pref_reqs_filtered_out: 1153308
stream:pref_filled: 773724
stream:pref_useful: 128605
stream:pref_late: 16622
stream:misses: 35301
stream:misses_by_poll: 0

CS: 
CS:times selected: 59785
CS:pref_reqs: 60125
CS:pref_reqs_filtered_out: 18523
CS:pref_filled: 21964
CS:pref_useful: 3964
CS:pref_late: 234
CS:misses: 851
CS:misses_by_poll: 4

CPLX: 
CPLX:times selected: 4455652
CPLX:pref_reqs: 665930
CPLX:pref_reqs_filtered_out: 200195
CPLX:pref_filled: 239673
CPLX:pref_useful: 7923
CPLX:pref_late: 1181
CPLX:misses: 111433
CPLX:misses_by_poll: 157

ISB: 
ISB:total access:7699885
ISB:times selected:3340114
ISB:canary counter:0
ISB:pref_reqs: 7225847
ISB:pref_reqs_filtered_out: 2414611
ISB:pref_filled: 1033598
ISB:pref_useful: 373369
ISB:pref_late: 5246
ISB:misses: 356409
ISB:misses_by_poll: 1839
ISB:Stream end: 2643450
ISB:No Prediction: 1156983 15.026
ISB:No translation: 2682158707 34833.8
ISB:Predictions: 3813032 49.5206

NL_L1: 
NL:times selected: 17125
NL:pref_reqs: 17125
NL:pref_reqs_filtered_out: 3418
NL:pref_filled: 4640
NL:pref_useful: 583
NL:pref_late: 82
NL:misses: 2716
NL:misses_by_poll: 0

Coverage: 27.4473
total selections: 12369770
total_filled: 1154102
total_useful: 295864
total_late: 24652
total_polluted: 2000
total_misses_after_warmup: 866781
conflicts: 4581769

test: 0
Prefetcher final stats
Training Unit Size: 197
Addr table size: 215843 215856
Stream divergence: 140790 1.82847
Stream divergence -- new stream: 0
--------------------------Training unit table ------------------------

DRAM Statistics
 CHANNEL 0
 RQ ROW_BUFFER_HIT:     119579  ROW_BUFFER_MISS:    1217785
 DBUS_CONGESTED:        431
 WQ ROW_BUFFER_HIT:     105483  ROW_BUFFER_MISS:     279195  FULL:          0

 AVG_CONGESTED_CYCLE: 4
 All warmup complete: 2
Channel 0 Bank busy for read cycles: 0
Channel 0 Bank busy for write cycles: 0
Channel 0
Rank 0
0banks busy for read cycles: 52651081
0banks busy for write cycles: 116065
1banks busy for read cycles: 51459314
1banks busy for write cycles: 17461430
2banks busy for read cycles: 25615322
2banks busy for write cycles: 9274029
3banks busy for read cycles: 12508306
3banks busy for write cycles: 5289595
4banks busy for read cycles: 6305407
4banks busy for write cycles: 3157527
5banks busy for read cycles: 2919617
5banks busy for write cycles: 1862812
6banks busy for read cycles: 1065108
6banks busy for write cycles: 1025746
7banks busy for read cycles: 272217
7banks busy for write cycles: 575812
8banks busy for read cycles: 43325
8banks busy for write cycles: 363206

CPU 0 Branch Prediction Accuracy: 94.0755% MPKI: 14.2353 Average ROB Occupancy at Mispredict: 26.0523
Branch types
NOT_BRANCH: 37985796 75.9716%
BRANCH_DIRECT_JUMP: 964405 1.92881%
BRANCH_INDIRECT: 140341 0.280682%
BRANCH_CONDITIONAL: 7911981 15.824%
BRANCH_DIRECT_CALL: 1294152 2.5883%
BRANCH_INDIRECT_CALL: 204449 0.408898%
BRANCH_RETURN: 1498606 2.99721%
BRANCH_OTHER: 0 0%

DRAM PAGES: 1048576
Allocated PAGES: 33441
