
*** ChampSim Multicore Out-of-Order Simulator ***

Warmup Instructions: 50000000
Simulation Instructions: 50000000
Number of CPUs: 1
LLC sets: 2048
LLC ways: 16
Off-chip DRAM Size: 4096 MB Channels: 1 Width: 64-bit Data Rate: 6400 MT/s
CPU 0 runs traces/SPEC-CPU2017/471.omnetpp-188B.champsimtrace.xz
.xz
CPU 0 Bimodal branch predictor
BTB has LRU replacement policy
ITLB has LRU replacement policy
DTLB has LRU replacement policy
STLB has LRU replacement policy
L1I has LRU replacement policy
L1D has LRU replacement policy
L2C has LRU replacement policy
LLC has LRU replacement policy
Heartbeat CPU 0 instructions: 10000001 cycles: 3267777 heartbeat IPC: 3.06018 cumulative IPC: 3.06018 (Simulation time: 0 hr 1 min 11 sec) 
Heartbeat CPU 0 instructions: 20000000 cycles: 6491858 heartbeat IPC: 3.10166 cumulative IPC: 3.08078 (Simulation time: 0 hr 2 min 19 sec) 
Heartbeat CPU 0 instructions: 30000000 cycles: 9752026 heartbeat IPC: 3.06733 cumulative IPC: 3.07628 (Simulation time: 0 hr 3 min 43 sec) 
Heartbeat CPU 0 instructions: 40000000 cycles: 12992147 heartbeat IPC: 3.0863 cumulative IPC: 3.07878 (Simulation time: 0 hr 4 min 59 sec) 
Heartbeat CPU 0 instructions: 50000003 cycles: 16240937 heartbeat IPC: 3.07807 cumulative IPC: 3.07864 (Simulation time: 0 hr 6 min 24 sec) 

Warmup complete CPU 0 instructions: 50000003 cycles: 16240937 (Simulation time: 0 hr 6 min 24 sec) 

Heartbeat CPU 0 instructions: 60000000 cycles: 57267428 heartbeat IPC: 0.243745 cumulative IPC: 0.243745 (Simulation time: 0 hr 7 min 39 sec) 
Heartbeat CPU 0 instructions: 70000001 cycles: 97608637 heartbeat IPC: 0.247886 cumulative IPC: 0.245798 (Simulation time: 0 hr 8 min 56 sec) 
Heartbeat CPU 0 instructions: 80000000 cycles: 140244663 heartbeat IPC: 0.234543 cumulative IPC: 0.241928 (Simulation time: 0 hr 10 min 19 sec) 
Heartbeat CPU 0 instructions: 90000003 cycles: 182870002 heartbeat IPC: 0.234602 cumulative IPC: 0.240054 (Simulation time: 0 hr 11 min 38 sec) 
Heartbeat CPU 0 instructions: 100000000 cycles: 225641106 heartbeat IPC: 0.233803 cumulative IPC: 0.238777 (Simulation time: 0 hr 13 min 0 sec) 
Finished CPU 0 instructions: 50000000 cycles: 209400178 cumulative IPC: 0.238777 (Simulation time: 0 hr 13 min 0 sec) 

ChampSim completed all CPUs

Region of Interest Statistics

CPU 0 cumulative IPC: 0.238777 instructions: 50000000 cycles: 209400178
ITLB TOTAL     ACCESS:    8725235  HIT:    8708032  MISS:      17203  HIT %:    99.8028  MISS %:   0.197164   MPKI: 0.34406
ITLB LOAD TRANSLATION ACCESS:    8725235  HIT:    8708032  MISS:      17203  HIT %:    99.8028  MISS %:   0.197164   MPKI: 0.34406
ITLB PREFETCH  REQUESTED:          0  ISSUED:          0  USEFUL:          0  USELESS:          0
ITLB USEFUL LOAD PREFETCHES:          0 PREFETCH ISSUED TO LOWER LEVEL:          0  ACCURACY: -nan
ITLB TIMELY PREFETCHES:          0 LATE PREFETCHES: 0 DROPPED PREFETCHES: 0
ITLB PREFETCHES SAME FILL-ORIGIN LEVEL: 0 DIFFERENT FILL-ORIGIN LEVEL: 0
ITLB AVERAGE MISS LATENCY: 11.366 cycles
ITLB RQ	ACCESS:    9817348	FORWARD:          0	MERGED:    1084497	TO_CACHE:    8732851

DTLB TOTAL     ACCESS:   14672864  HIT:   13715305  MISS:     957559  HIT %:    93.4739  MISS %:    6.52605   MPKI: 19.1512
DTLB LOAD TRANSLATION ACCESS:   14672864  HIT:   13715305  MISS:     957559  HIT %:    93.4739  MISS %:    6.52605   MPKI: 19.1512
DTLB PREFETCH  REQUESTED:          0  ISSUED:          0  USEFUL:          0  USELESS:          0
DTLB USEFUL LOAD PREFETCHES:          0 PREFETCH ISSUED TO LOWER LEVEL:          0  ACCURACY: -nan
DTLB TIMELY PREFETCHES:          0 LATE PREFETCHES: 0 DROPPED PREFETCHES: 0
DTLB PREFETCHES SAME FILL-ORIGIN LEVEL: 0 DIFFERENT FILL-ORIGIN LEVEL: 0
DTLB AVERAGE MISS LATENCY: 25.3483 cycles
DTLB RQ	ACCESS:   17854149	FORWARD:          0	MERGED:    3134216	TO_CACHE:   14719933

STLB TOTAL     ACCESS:    1635798  HIT:    1409425  MISS:     226373  HIT %:    86.1613  MISS %:    13.8387   MPKI: 4.52746
STLB LOAD TRANSLATION ACCESS:     974762  HIT:     765935  MISS:     208827  HIT %:    78.5766  MISS %:    21.4234   MPKI: 4.17654
STLB TRANSLATION FROM L1D PREFETCHER ACCESS:     661036  HIT:     643490  MISS:      17546  HIT %:    97.3457  MISS %:    2.65432   MPKI: 0.35092
STLB PREFETCH  REQUESTED:          0  ISSUED:          0  USEFUL:      13624  USELESS:       3913
STLB USEFUL LOAD PREFETCHES:      13624 PREFETCH ISSUED TO LOWER LEVEL:          0  ACCURACY: inf
STLB TIMELY PREFETCHES:      13624 LATE PREFETCHES: 37 DROPPED PREFETCHES: 0
STLB PREFETCHES SAME FILL-ORIGIN LEVEL: 0 DIFFERENT FILL-ORIGIN LEVEL: 0
STLB AVERAGE MISS LATENCY: 82.3505 cycles
STLB RQ	ACCESS:    1783395	FORWARD:          0	MERGED:     147471	TO_CACHE:    1635924

STLB Hit, L1D data hit: 0
STLB Hit, L2C data hit: 0
STLB Hit, LLC data hit: 0
STLB Hit, LLC data miss: 0
STLB STLB hints to L2: 0
L1D TOTAL     ACCESS:   18071361  HIT:   16434040  MISS:    1637321  HIT %:    90.9397  MISS %:    9.06031   MPKI: 32.7464
L1D LOAD      ACCESS:    9467027  HIT:    8574862  MISS:     892165  HIT %:    90.5761  MISS %:    9.42392   MPKI: 17.8433
L1D RFO       ACCESS:    7909847  HIT:    7750172  MISS:     159675  HIT %:    97.9813  MISS %:    2.01869   MPKI: 3.1935
L1D PREFETCH  ACCESS:     694487  HIT:     109006  MISS:     585481  HIT %:    15.6959  MISS %:    84.3041   MPKI: 11.7096
AGUS PREFETCH L1 MISS: 0
L1D PREFETCH  REQUESTED:    1618701  ISSUED:    1617411  USEFUL:     140468  USELESS:     445125
L1D USEFUL LOAD PREFETCHES:     140468 PREFETCH ISSUED TO LOWER LEVEL:     601333  ACCURACY: 23.3594
L1D TIMELY PREFETCHES:     140468 LATE PREFETCHES: 15506 DROPPED PREFETCHES: 0
L1D PREFETCHES SAME FILL-ORIGIN LEVEL: 601333 DIFFERENT FILL-ORIGIN LEVEL: 0
L1D AVERAGE MISS LATENCY: 159.689 cycles
L1D RQ	ACCESS:   14064949	FORWARD:          0	MERGED:    4060279	TO_CACHE:    9562585
L1D WQ	ACCESS:    8476021	FORWARD:     442230	MERGED:     184457	TO_CACHE:    8291564
L1D PQ	ACCESS:     808778	FORWARD:          0	MERGED:          0	TO_CACHE:     808633

L1D UNIQUE REGIONS ACCESSED: 0
L1D REGIONS CONFLICTS: 0
L1D Cross Page Prefetch Requests: 58668
L1D Same Page Prefetch Requests: 1514890
L1D ROI Sum of L1D PQ occupancy: 16357652
L1D PREFETCHES PUSHED FROM L2C: 0
L1I TOTAL     ACCESS:    9817051  HIT:    9815510  MISS:       1541  HIT %:    99.9843  MISS %:  0.0156972   MPKI: 0.03082
L1I LOAD      ACCESS:    9817051  HIT:    9815510  MISS:       1541  HIT %:    99.9843  MISS %:  0.0156972   MPKI: 0.03082
L1I PREFETCH  REQUESTED:          0  ISSUED:          0  USEFUL:          0  USELESS:          0
L1I USEFUL LOAD PREFETCHES:          0 PREFETCH ISSUED TO LOWER LEVEL:          0  ACCURACY: -nan
L1I TIMELY PREFETCHES:          0 LATE PREFETCHES: 0 DROPPED PREFETCHES: 0
L1I PREFETCHES SAME FILL-ORIGIN LEVEL: 0 DIFFERENT FILL-ORIGIN LEVEL: 0
L1I AVERAGE MISS LATENCY: 156.226 cycles
L1I RQ	ACCESS:   14784299	FORWARD:          0	MERGED:    4966951	TO_CACHE:    9817348

BTB TOTAL     ACCESS:   10008119  HIT:    9487971  MISS:     520148  HIT %:    94.8027  MISS %:    5.19726   MPKI: 10.403
BTB BRANCH_DIRECT_JUMP	ACCESS:     964405  HIT:     964243  MISS:        162
BTB BRANCH_INDIRECT	ACCESS:     140341  HIT:     116325  MISS:      24016
BTB BRANCH_CONDITIONAL	ACCESS:    5906166  HIT:    5905777  MISS:        389
BTB BRANCH_DIRECT_CALL	ACCESS:    1294152  HIT:    1293861  MISS:        291
BTB BRANCH_INDIRECT_CALL	ACCESS:     204449  HIT:     203146  MISS:       1303
BTB BRANCH_RETURN	ACCESS:    1498606  HIT:    1004619  MISS:     493987
BTB BRANCH_OTHER ACCESS:          0  HIT:          0  MISS:          0

L2C TOTAL     ACCESS:    2377807  HIT:     853646  MISS:    1524161  HIT %:    35.9006  MISS %:    64.0994   MPKI: 30.4832
L2C LOAD      ACCESS:     878184  HIT:     130543  MISS:     747641  HIT %:    14.8651  MISS %:    85.1349   MPKI: 14.9528
L2C DATA LOAD MPKI: 14.9264
L2C INSTRUCTION LOAD MPKI: 0.02644
L2C RFO       ACCESS:     159329  HIT:       9721  MISS:     149608  HIT %:    6.10121  MISS %:    93.8988   MPKI: 2.99216
L2C PREFETCH  ACCESS:     601333  HIT:      74220  MISS:     527113  HIT %:    12.3426  MISS %:    87.6574   MPKI: 10.5423
AGUS PREFETCH L1 MISS: 0
L2C DATA PREFETCH MPKI: 10.5423
L2C INSTRUCTION PREFETCH MPKI: 0
L2C WRITEBACK ACCESS:     499633  HIT:     498118  MISS:       1515  HIT %:    99.6968  MISS %:   0.303223   MPKI: 0.0303
L2C LOAD TRANSLATION ACCESS:     220320  HIT:     131936  MISS:      88384  HIT %:    59.8838  MISS %:    40.1162   MPKI: 1.76768
L2C TRANSLATION FROM L1D PREFETCHER ACCESS:      19008  HIT:       9108  MISS:       9900  HIT %:    47.9167  MISS %:    52.0833   MPKI: 0.198
L2C PREFETCH  REQUESTED:          0  ISSUED:          0  USEFUL:      27525  USELESS:     509622
L2C USEFUL LOAD PREFETCHES:      27525 PREFETCH ISSUED TO LOWER LEVEL:     527113  ACCURACY: 5.22184
L2C TIMELY PREFETCHES:      27525 LATE PREFETCHES: 0 DROPPED PREFETCHES: 0
L2C PREFETCHES SAME FILL-ORIGIN LEVEL: 0 DIFFERENT FILL-ORIGIN LEVEL: 0
L2C AVERAGE MISS LATENCY: 161.737 cycles
L2C RQ	ACCESS:    1276857	FORWARD:          0	MERGED:          0	TO_CACHE:    1276841
L2C WQ	ACCESS:     499633	FORWARD:         16	MERGED:          0	TO_CACHE:     499633
L2C PQ	ACCESS:     601333	FORWARD:          0	MERGED:          0	TO_CACHE:     601333

L2C Instructions Evicting Data 1233
L2C Translations Evicting Data 91729
L2C Data Evicting Data 1329445
L2C Instructions Evicting Instructions 6
L2C Translations Evicting Instructions 83
L2C Data Evicting Instructions 1232
L2C Instructions Evicting Translations 83
L2C Translations Evicting Translations 6472
L2C Data Evicting Translations 92363
L2C Dense regions hint from L2: 0
PSCL5 TOTAL     ACCESS:     226373  HIT:     226373  MISS:          0  HIT %:        100  MISS %:          0   MPKI: 0
PSCL5 LOAD TRANSLATION ACCESS:     208790  HIT:     208790  MISS:          0  HIT %:        100  MISS %:          0   MPKI: 0
PSCL5 TRANSLATION FROM L1D PREFETCHER ACCESS:      17583  HIT:      17583  MISS:          0  HIT %:        100  MISS %:          0   MPKI: 0
PSCL5 PREFETCH  REQUESTED:          0  ISSUED:          0  USEFUL:          0  USELESS:          0
PSCL5 USEFUL LOAD PREFETCHES:          0 PREFETCH ISSUED TO LOWER LEVEL:          0  ACCURACY: -nan
PSCL5 TIMELY PREFETCHES:          0 LATE PREFETCHES: 0 DROPPED PREFETCHES: 0
PSCL5 PREFETCHES SAME FILL-ORIGIN LEVEL: 0 DIFFERENT FILL-ORIGIN LEVEL: 0

PSCL4 TOTAL     ACCESS:     226373  HIT:     226373  MISS:          0  HIT %:        100  MISS %:          0   MPKI: 0
PSCL4 LOAD TRANSLATION ACCESS:     208790  HIT:     208790  MISS:          0  HIT %:        100  MISS %:          0   MPKI: 0
PSCL4 TRANSLATION FROM L1D PREFETCHER ACCESS:      17583  HIT:      17583  MISS:          0  HIT %:        100  MISS %:          0   MPKI: 0
PSCL4 PREFETCH  REQUESTED:          0  ISSUED:          0  USEFUL:          0  USELESS:          0
PSCL4 USEFUL LOAD PREFETCHES:          0 PREFETCH ISSUED TO LOWER LEVEL:          0  ACCURACY: -nan
PSCL4 TIMELY PREFETCHES:          0 LATE PREFETCHES: 0 DROPPED PREFETCHES: 0
PSCL4 PREFETCHES SAME FILL-ORIGIN LEVEL: 0 DIFFERENT FILL-ORIGIN LEVEL: 0

PSCL3 TOTAL     ACCESS:     226373  HIT:     226373  MISS:          0  HIT %:        100  MISS %:          0   MPKI: 0
PSCL3 LOAD TRANSLATION ACCESS:     208790  HIT:     208790  MISS:          0  HIT %:        100  MISS %:          0   MPKI: 0
PSCL3 TRANSLATION FROM L1D PREFETCHER ACCESS:      17583  HIT:      17583  MISS:          0  HIT %:        100  MISS %:          0   MPKI: 0
PSCL3 PREFETCH  REQUESTED:          0  ISSUED:          0  USEFUL:          0  USELESS:          0
PSCL3 USEFUL LOAD PREFETCHES:          0 PREFETCH ISSUED TO LOWER LEVEL:          0  ACCURACY: -nan
PSCL3 TIMELY PREFETCHES:          0 LATE PREFETCHES: 0 DROPPED PREFETCHES: 0
PSCL3 PREFETCHES SAME FILL-ORIGIN LEVEL: 0 DIFFERENT FILL-ORIGIN LEVEL: 0

PSCL2 TOTAL     ACCESS:     226373  HIT:     213417  MISS:      12956  HIT %:    94.2767  MISS %:     5.7233   MPKI: 0.25912
PSCL2 LOAD TRANSLATION ACCESS:     210215  HIT:     197259  MISS:      12956  HIT %:    93.8368  MISS %:    6.16321   MPKI: 0.25912
PSCL2 TRANSLATION FROM L1D PREFETCHER ACCESS:      16158  HIT:      16158  MISS:          0  HIT %:        100  MISS %:          0   MPKI: 0
PSCL2 PREFETCH  REQUESTED:          0  ISSUED:          0  USEFUL:          0  USELESS:          0
PSCL2 USEFUL LOAD PREFETCHES:          0 PREFETCH ISSUED TO LOWER LEVEL:          0  ACCURACY: -nan
PSCL2 TIMELY PREFETCHES:          0 LATE PREFETCHES: 0 DROPPED PREFETCHES: 0
PSCL2 PREFETCHES SAME FILL-ORIGIN LEVEL: 0 DIFFERENT FILL-ORIGIN LEVEL: 0

LLC TOTAL     ACCESS:    1968548  HIT:     734559  MISS:    1233989  HIT %:    37.3148  MISS %:    62.6852   MPKI: 24.6798
LLC LOAD      ACCESS:     747641  HIT:     124099  MISS:     623542  HIT %:    16.5987  MISS %:    83.4013   MPKI: 12.4708
LLC RFO       ACCESS:     149607  HIT:      19788  MISS:     129819  HIT %:    13.2267  MISS %:    86.7733   MPKI: 2.59638
LLC PREFETCH  ACCESS:     527113  HIT:      85356  MISS:     441757  HIT %:    16.1931  MISS %:    83.8069   MPKI: 8.83514
AGUS PREFETCH L1 MISS: 0
LLC WRITEBACK ACCESS:     445903  HIT:     444890  MISS:       1013  HIT %:    99.7728  MISS %:   0.227179   MPKI: 0.02026
LLC LOAD TRANSLATION ACCESS:      88384  HIT:      55323  MISS:      33061  HIT %:    62.5939  MISS %:    37.4061   MPKI: 0.66122
LLC TRANSLATION FROM L1D PREFETCHER ACCESS:       9900  HIT:       5103  MISS:       4797  HIT %:    51.5455  MISS %:    48.4545   MPKI: 0.09594
LLC PREFETCH  REQUESTED:          0  ISSUED:          0  USEFUL:      21550  USELESS:     426253
LLC USEFUL LOAD PREFETCHES:      21550 PREFETCH ISSUED TO LOWER LEVEL:     441757  ACCURACY: 4.87825
LLC TIMELY PREFETCHES:      21550 LATE PREFETCHES: 0 DROPPED PREFETCHES: 0
LLC PREFETCHES SAME FILL-ORIGIN LEVEL: 0 DIFFERENT FILL-ORIGIN LEVEL: 0
LLC AVERAGE MISS LATENCY: 162.69 cycles
LLC RQ	ACCESS:     995533	FORWARD:          0	MERGED:          0	TO_CACHE:     995532
LLC WQ	ACCESS:     445903	FORWARD:          1	MERGED:          0	TO_CACHE:     445903
LLC PQ	ACCESS:     527113	FORWARD:          0	MERGED:          0	TO_CACHE:     527113

LLC Dense regions hint to LLC: 0

RAW hits: 810486
Loads Generated: 14875435
Loads sent to L1D: 14064949
Stores Generated: 8476009
Stores sent to L1D: 8476021
Major fault: 0 Minor fault: 33441
Allocated PAGES: 33441

stream: 
stream:times selected: 1485266
stream:pref_reqs: 1444157
stream:pref_reqs_filtered_out: 50517
stream:pref_filled: 959000
stream:pref_useful: 209477
stream:pref_late: 26225
stream:misses: 345839
stream:misses_by_poll: 0

CS: 
CS:times selected: 62340
CS:pref_reqs: 62548
CS:pref_reqs_filtered_out: 11361
CS:pref_filled: 34776
CS:pref_useful: 3397
CS:pref_late: 175
CS:misses: 7943
CS:misses_by_poll: 12

CPLX: 
CPLX:times selected: 1472339
CPLX:pref_reqs: 80251
CPLX:pref_reqs_filtered_out: 14427
CPLX:pref_filled: 62375
CPLX:pref_useful: 5388
CPLX:pref_late: 267
CPLX:misses: 1056399
CPLX:misses_by_poll: 17

ISB: 
ISB:total access:1505151
ISB:times selected:992984
ISB:canary counter:0
ISB:pref_reqs: 67675
ISB:pref_reqs_filtered_out: 2552
ISB:pref_filled: 57994
ISB:pref_useful: 33191
ISB:pref_late: 394
ISB:misses: 23792
ISB:misses_by_poll: 20
ISB:Stream end: 987237
ISB:No Prediction: 512167 34.0276
ISB:No translation: 1009826795 67091.4
ISB:Predictions: 63771 4.23685

NL_L1: 
NL:times selected: 14390
NL:pref_reqs: 14390
NL:pref_reqs_filtered_out: 875
NL:pref_filled: 10318
NL:pref_useful: 2827
NL:pref_late: 246
NL:misses: 13916
NL:misses_by_poll: 0

Coverage: 13.6029
total selections: 4027319
total_filled: 585481
total_useful: 140468
total_late: 28490
total_polluted: 49
total_misses_after_warmup: 987723
conflicts: 124030

test: 0
Prefetcher final stats
Training Unit Size: 0
Addr table size: 285468 293256
Stream divergence: 1348532 89.5945
Stream divergence -- new stream: 0
--------------------------Training unit table ------------------------

DRAM Statistics
 CHANNEL 0
 RQ ROW_BUFFER_HIT:     165851  ROW_BUFFER_MISS:    1067114
 DBUS_CONGESTED:        784
 WQ ROW_BUFFER_HIT:     111771  ROW_BUFFER_MISS:     269597  FULL:          0

 AVG_CONGESTED_CYCLE: 4
 All warmup complete: 2
Channel 0 Bank busy for read cycles: 0
Channel 0 Bank busy for write cycles: 0
Channel 0
Rank 0
0banks busy for read cycles: 73736021
0banks busy for write cycles: 140871
1banks busy for read cycles: 42754969
1banks busy for write cycles: 20584891
2banks busy for read cycles: 31968687
2banks busy for write cycles: 11593577
3banks busy for read cycles: 10634196
3banks busy for write cycles: 6017004
4banks busy for read cycles: 4685665
4banks busy for write cycles: 2974453
5banks busy for read cycles: 1561879
5banks busy for write cycles: 1377366
6banks busy for read cycles: 405318
6banks busy for write cycles: 582513
7banks busy for read cycles: 87506
7banks busy for write cycles: 215925
8banks busy for read cycles: 21524
8banks busy for write cycles: 57814

CPU 0 Branch Prediction Accuracy: 94.0755% MPKI: 14.2353 Average ROB Occupancy at Mispredict: 26.1587
Branch types
NOT_BRANCH: 37985796 75.9716%
BRANCH_DIRECT_JUMP: 964405 1.92881%
BRANCH_INDIRECT: 140341 0.280682%
BRANCH_CONDITIONAL: 7911981 15.824%
BRANCH_DIRECT_CALL: 1294152 2.5883%
BRANCH_INDIRECT_CALL: 204449 0.408898%
BRANCH_RETURN: 1498606 2.99721%
BRANCH_OTHER: 0 0%

DRAM PAGES: 1048576
Allocated PAGES: 33441
