
*** ChampSim Multicore Out-of-Order Simulator ***

Warmup Instructions: 50000000
Simulation Instructions: 50000000
Number of CPUs: 1
LLC sets: 2048
LLC ways: 16
Off-chip DRAM Size: 4096 MB Channels: 1 Width: 64-bit Data Rate: 6400 MT/s
CPU 0 runs traces/SPEC-CPU2017/471.omnetpp-188B.champsimtrace.xz
.xz
CPU 0 Bimodal branch predictor
BTB has LRU replacement policy
ITLB has LRU replacement policy
DTLB has LRU replacement policy
STLB has LRU replacement policy
L1I has LRU replacement policy
L1D has LRU replacement policy
L2C has LRU replacement policy
LLC has LRU replacement policy
Heartbeat CPU 0 instructions: 10000001 cycles: 3273912 heartbeat IPC: 3.05445 cumulative IPC: 3.05445 (Simulation time: 0 hr 4 min 28 sec) 
Heartbeat CPU 0 instructions: 20000000 cycles: 6506112 heartbeat IPC: 3.09387 cumulative IPC: 3.07403 (Simulation time: 0 hr 8 min 56 sec) 
Heartbeat CPU 0 instructions: 30000000 cycles: 9761190 heartbeat IPC: 3.07212 cumulative IPC: 3.0734 (Simulation time: 0 hr 13 min 39 sec) 
Heartbeat CPU 0 instructions: 40000000 cycles: 13005257 heartbeat IPC: 3.08255 cumulative IPC: 3.07568 (Simulation time: 0 hr 18 min 17 sec) 
Heartbeat CPU 0 instructions: 50000003 cycles: 16241071 heartbeat IPC: 3.09041 cumulative IPC: 3.07861 (Simulation time: 0 hr 22 min 58 sec) 

Warmup complete CPU 0 instructions: 50000003 cycles: 16241071 (Simulation time: 0 hr 22 min 58 sec) 

Heartbeat CPU 0 instructions: 60000000 cycles: 55338480 heartbeat IPC: 0.255771 cumulative IPC: 0.255771 (Simulation time: 0 hr 25 min 21 sec) 
Heartbeat CPU 0 instructions: 70000001 cycles: 93097703 heartbeat IPC: 0.264836 cumulative IPC: 0.260225 (Simulation time: 0 hr 27 min 54 sec) 
Heartbeat CPU 0 instructions: 80000000 cycles: 132265583 heartbeat IPC: 0.255311 cumulative IPC: 0.258566 (Simulation time: 0 hr 30 min 32 sec) 
Heartbeat CPU 0 instructions: 90000003 cycles: 171750658 heartbeat IPC: 0.25326 cumulative IPC: 0.257219 (Simulation time: 0 hr 33 min 2 sec) 
Heartbeat CPU 0 instructions: 100000000 cycles: 211022166 heartbeat IPC: 0.254637 cumulative IPC: 0.256698 (Simulation time: 0 hr 35 min 35 sec) 
Finished CPU 0 instructions: 50000000 cycles: 194781104 cumulative IPC: 0.256698 (Simulation time: 0 hr 35 min 35 sec) 

ChampSim completed all CPUs

Region of Interest Statistics

CPU 0 cumulative IPC: 0.256698 instructions: 50000000 cycles: 194781104
ITLB TOTAL     ACCESS:    8719285  HIT:    8702082  MISS:      17203  HIT %:    99.8027  MISS %:   0.197298   MPKI: 0.34406
ITLB LOAD TRANSLATION ACCESS:    8719285  HIT:    8702082  MISS:      17203  HIT %:    99.8027  MISS %:   0.197298   MPKI: 0.34406
ITLB PREFETCH  REQUESTED:          0  ISSUED:          0  USEFUL:          0  USELESS:          0
ITLB USEFUL LOAD PREFETCHES:          0 PREFETCH ISSUED TO LOWER LEVEL:          0  ACCURACY: -nan
ITLB TIMELY PREFETCHES:          0 LATE PREFETCHES: 0 DROPPED PREFETCHES: 0
ITLB PREFETCHES SAME FILL-ORIGIN LEVEL: 0 DIFFERENT FILL-ORIGIN LEVEL: 0
ITLB AVERAGE MISS LATENCY: 11.9095 cycles
ITLB RQ	ACCESS:    9809138	FORWARD:          0	MERGED:    1082235	TO_CACHE:    8726903

DTLB TOTAL     ACCESS:   14655384  HIT:   13697907  MISS:     957477  HIT %:    93.4667  MISS %:    6.53328   MPKI: 19.1495
DTLB LOAD TRANSLATION ACCESS:   14655384  HIT:   13697907  MISS:     957477  HIT %:    93.4667  MISS %:    6.53328   MPKI: 19.1495
DTLB PREFETCH  REQUESTED:          0  ISSUED:          0  USEFUL:          0  USELESS:          0
DTLB USEFUL LOAD PREFETCHES:          0 PREFETCH ISSUED TO LOWER LEVEL:          0  ACCURACY: -nan
DTLB TIMELY PREFETCHES:          0 LATE PREFETCHES: 0 DROPPED PREFETCHES: 0
DTLB PREFETCHES SAME FILL-ORIGIN LEVEL: 0 DIFFERENT FILL-ORIGIN LEVEL: 0
DTLB AVERAGE MISS LATENCY: 19.5895 cycles
DTLB RQ	ACCESS:   17828418	FORWARD:          0	MERGED:    3128012	TO_CACHE:   14700406

STLB TOTAL     ACCESS:    3982493  HIT:    3661619  MISS:     320874  HIT %:    91.9429  MISS %:    8.05711   MPKI: 6.41748
STLB LOAD TRANSLATION ACCESS:     974680  HIT:     844157  MISS:     130523  HIT %:    86.6086  MISS %:    13.3914   MPKI: 2.61046
STLB TRANSLATION FROM L1D PREFETCHER ACCESS:    3007813  HIT:    2817462  MISS:     190351  HIT %:    93.6714  MISS %:    6.32855   MPKI: 3.80702
STLB PREFETCH  REQUESTED:          0  ISSUED:          0  USEFUL:     136095  USELESS:      54164
STLB USEFUL LOAD PREFETCHES:     136095 PREFETCH ISSUED TO LOWER LEVEL:          0  ACCURACY: inf
STLB TIMELY PREFETCHES:     136095 LATE PREFETCHES: 652 DROPPED PREFETCHES: 0
STLB PREFETCHES SAME FILL-ORIGIN LEVEL: 0 DIFFERENT FILL-ORIGIN LEVEL: 0
STLB AVERAGE MISS LATENCY: 107.392 cycles
STLB RQ	ACCESS:    4597755	FORWARD:          0	MERGED:     612950	TO_CACHE:    3984805

STLB Hit, L1D data hit: 0
STLB Hit, L2C data hit: 0
STLB Hit, LLC data hit: 0
STLB Hit, LLC data miss: 0
STLB STLB hints to L2: 0
L1D TOTAL     ACCESS:   20935232  HIT:   19009588  MISS:    1925644  HIT %:    90.8019  MISS %:     9.1981   MPKI: 38.5129
L1D LOAD      ACCESS:    9472542  HIT:    8703152  MISS:     769390  HIT %:    91.8777  MISS %:    8.12232   MPKI: 15.3878
L1D RFO       ACCESS:    7892815  HIT:    7739867  MISS:     152948  HIT %:    98.0622  MISS %:    1.93781   MPKI: 3.05896
L1D PREFETCH  ACCESS:    3569875  HIT:    2566569  MISS:    1003306  HIT %:    71.8952  MISS %:    28.1048   MPKI: 20.0661
AGUS PREFETCH L1 MISS: 0
L1D PREFETCH  REQUESTED:    7539260  ISSUED:    7246354  USEFUL:     293922  USELESS:     709442
L1D USEFUL LOAD PREFETCHES:     293922 PREFETCH ISSUED TO LOWER LEVEL:    1020407  ACCURACY: 28.8044
L1D TIMELY PREFETCHES:     293922 LATE PREFETCHES: 16068 DROPPED PREFETCHES: 0
L1D PREFETCHES SAME FILL-ORIGIN LEVEL: 1020407 DIFFERENT FILL-ORIGIN LEVEL: 0
L1D AVERAGE MISS LATENCY: 156.415 cycles
L1D RQ	ACCESS:   14040446	FORWARD:          0	MERGED:    4040555	TO_CACHE:    9561108
L1D WQ	ACCESS:    8476021	FORWARD:     438960	MERGED:     208711	TO_CACHE:    8267310
L1D PQ	ACCESS:    3623279	FORWARD:          0	MERGED:         27	TO_CACHE:    3623075

L1D UNIQUE REGIONS ACCESSED: 0
L1D REGIONS CONFLICTS: 0
L1D Cross Page Prefetch Requests: 2977153
L1D Same Page Prefetch Requests: 3794704
L1D ROI Sum of L1D PQ occupancy: 97853159
L1D PREFETCHES PUSHED FROM L2C: 0
L1I TOTAL     ACCESS:    9808838  HIT:    9807297  MISS:       1541  HIT %:    99.9843  MISS %:  0.0157103   MPKI: 0.03082
L1I LOAD      ACCESS:    9808838  HIT:    9807297  MISS:       1541  HIT %:    99.9843  MISS %:  0.0157103   MPKI: 0.03082
L1I PREFETCH  REQUESTED:          0  ISSUED:          0  USEFUL:          0  USELESS:          0
L1I USEFUL LOAD PREFETCHES:          0 PREFETCH ISSUED TO LOWER LEVEL:          0  ACCURACY: -nan
L1I TIMELY PREFETCHES:          0 LATE PREFETCHES: 0 DROPPED PREFETCHES: 0
L1I PREFETCHES SAME FILL-ORIGIN LEVEL: 0 DIFFERENT FILL-ORIGIN LEVEL: 0
L1I AVERAGE MISS LATENCY: 161.003 cycles
L1I RQ	ACCESS:   14767337	FORWARD:          0	MERGED:    4958199	TO_CACHE:    9809138

BTB TOTAL     ACCESS:   10008119  HIT:    9487971  MISS:     520148  HIT %:    94.8027  MISS %:    5.19726   MPKI: 10.403
BTB BRANCH_DIRECT_JUMP	ACCESS:     964405  HIT:     964243  MISS:        162
BTB BRANCH_INDIRECT	ACCESS:     140341  HIT:     116325  MISS:      24016
BTB BRANCH_CONDITIONAL	ACCESS:    5906166  HIT:    5905777  MISS:        389
BTB BRANCH_DIRECT_CALL	ACCESS:    1294152  HIT:    1293861  MISS:        291
BTB BRANCH_INDIRECT_CALL	ACCESS:     204449  HIT:     203146  MISS:       1303
BTB BRANCH_RETURN	ACCESS:    1498606  HIT:    1004619  MISS:     493987
BTB BRANCH_OTHER ACCESS:          0  HIT:          0  MISS:          0

L2C TOTAL     ACCESS:    2790681  HIT:    1108967  MISS:    1681714  HIT %:    39.7382  MISS %:    60.2618   MPKI: 33.6343
L2C LOAD      ACCESS:     754837  HIT:     136056  MISS:     618781  HIT %:    18.0246  MISS %:    81.9754   MPKI: 12.3756
L2C DATA LOAD MPKI: 12.3484
L2C INSTRUCTION LOAD MPKI: 0.02718
L2C RFO       ACCESS:     151913  HIT:      13901  MISS:     138012  HIT %:    9.15063  MISS %:    90.8494   MPKI: 2.76024
L2C PREFETCH  ACCESS:    1020371  HIT:     235305  MISS:     785066  HIT %:    23.0607  MISS %:    76.9393   MPKI: 15.7013
AGUS PREFETCH L1 MISS: 0
L2C DATA PREFETCH MPKI: 15.7013
L2C INSTRUCTION PREFETCH MPKI: 0
L2C WRITEBACK ACCESS:     505750  HIT:     503679  MISS:       2071  HIT %:    99.5905  MISS %:   0.409491   MPKI: 0.04142
L2C LOAD TRANSLATION ACCESS:     143185  HIT:      91987  MISS:      51198  HIT %:    64.2435  MISS %:    35.7565   MPKI: 1.02396
L2C TRANSLATION FROM L1D PREFETCHER ACCESS:     214625  HIT:     128039  MISS:      86586  HIT %:    59.6571  MISS %:    40.3429   MPKI: 1.73172
L2C PREFETCH  REQUESTED:          0  ISSUED:          0  USEFUL:      86255  USELESS:     785614
L2C USEFUL LOAD PREFETCHES:      86255 PREFETCH ISSUED TO LOWER LEVEL:     785066  ACCURACY: 10.987
L2C TIMELY PREFETCHES:      86255 LATE PREFETCHES: 0 DROPPED PREFETCHES: 0
L2C PREFETCHES SAME FILL-ORIGIN LEVEL: 0 DIFFERENT FILL-ORIGIN LEVEL: 0
L2C AVERAGE MISS LATENCY: 169.472 cycles
L2C RQ	ACCESS:    1264588	FORWARD:          0	MERGED:          0	TO_CACHE:    1264560
L2C WQ	ACCESS:     505750	FORWARD:         64	MERGED:          0	TO_CACHE:     505750
L2C PQ	ACCESS:    1020407	FORWARD:          0	MERGED:          0	TO_CACHE:    1020371

L2C Instructions Evicting Data 1281
L2C Translations Evicting Data 125901
L2C Data Evicting Data 1412836
L2C Instructions Evicting Instructions 7
L2C Translations Evicting Instructions 87
L2C Data Evicting Instructions 1262
L2C Instructions Evicting Translations 71
L2C Translations Evicting Translations 11796
L2C Data Evicting Translations 126402
L2C Dense regions hint from L2: 0
PSCL5 TOTAL     ACCESS:     320874  HIT:     320874  MISS:          0  HIT %:        100  MISS %:          0   MPKI: 0
PSCL5 LOAD TRANSLATION ACCESS:     129871  HIT:     129871  MISS:          0  HIT %:        100  MISS %:          0   MPKI: 0
PSCL5 TRANSLATION FROM L1D PREFETCHER ACCESS:     191003  HIT:     191003  MISS:          0  HIT %:        100  MISS %:          0   MPKI: 0
PSCL5 PREFETCH  REQUESTED:          0  ISSUED:          0  USEFUL:          0  USELESS:          0
PSCL5 USEFUL LOAD PREFETCHES:          0 PREFETCH ISSUED TO LOWER LEVEL:          0  ACCURACY: -nan
PSCL5 TIMELY PREFETCHES:          0 LATE PREFETCHES: 0 DROPPED PREFETCHES: 0
PSCL5 PREFETCHES SAME FILL-ORIGIN LEVEL: 0 DIFFERENT FILL-ORIGIN LEVEL: 0

PSCL4 TOTAL     ACCESS:     320874  HIT:     320874  MISS:          0  HIT %:        100  MISS %:          0   MPKI: 0
PSCL4 LOAD TRANSLATION ACCESS:     129871  HIT:     129871  MISS:          0  HIT %:        100  MISS %:          0   MPKI: 0
PSCL4 TRANSLATION FROM L1D PREFETCHER ACCESS:     191003  HIT:     191003  MISS:          0  HIT %:        100  MISS %:          0   MPKI: 0
PSCL4 PREFETCH  REQUESTED:          0  ISSUED:          0  USEFUL:          0  USELESS:          0
PSCL4 USEFUL LOAD PREFETCHES:          0 PREFETCH ISSUED TO LOWER LEVEL:          0  ACCURACY: -nan
PSCL4 TIMELY PREFETCHES:          0 LATE PREFETCHES: 0 DROPPED PREFETCHES: 0
PSCL4 PREFETCHES SAME FILL-ORIGIN LEVEL: 0 DIFFERENT FILL-ORIGIN LEVEL: 0

PSCL3 TOTAL     ACCESS:     320874  HIT:     320874  MISS:          0  HIT %:        100  MISS %:          0   MPKI: 0
PSCL3 LOAD TRANSLATION ACCESS:     129871  HIT:     129871  MISS:          0  HIT %:        100  MISS %:          0   MPKI: 0
PSCL3 TRANSLATION FROM L1D PREFETCHER ACCESS:     191003  HIT:     191003  MISS:          0  HIT %:        100  MISS %:          0   MPKI: 0
PSCL3 PREFETCH  REQUESTED:          0  ISSUED:          0  USEFUL:          0  USELESS:          0
PSCL3 USEFUL LOAD PREFETCHES:          0 PREFETCH ISSUED TO LOWER LEVEL:          0  ACCURACY: -nan
PSCL3 TIMELY PREFETCHES:          0 LATE PREFETCHES: 0 DROPPED PREFETCHES: 0
PSCL3 PREFETCHES SAME FILL-ORIGIN LEVEL: 0 DIFFERENT FILL-ORIGIN LEVEL: 0

PSCL2 TOTAL     ACCESS:     320874  HIT:     283937  MISS:      36937  HIT %:    88.4886  MISS %:    11.5114   MPKI: 0.73874
PSCL2 LOAD TRANSLATION ACCESS:     153493  HIT:     116556  MISS:      36937  HIT %:    75.9357  MISS %:    24.0643   MPKI: 0.73874
PSCL2 TRANSLATION FROM L1D PREFETCHER ACCESS:     167381  HIT:     167381  MISS:          0  HIT %:        100  MISS %:          0   MPKI: 0
PSCL2 PREFETCH  REQUESTED:          0  ISSUED:          0  USEFUL:          0  USELESS:          0
PSCL2 USEFUL LOAD PREFETCHES:          0 PREFETCH ISSUED TO LOWER LEVEL:          0  ACCURACY: -nan
PSCL2 TIMELY PREFETCHES:          0 LATE PREFETCHES: 0 DROPPED PREFETCHES: 0
PSCL2 PREFETCHES SAME FILL-ORIGIN LEVEL: 0 DIFFERENT FILL-ORIGIN LEVEL: 0

LLC TOTAL     ACCESS:    2127229  HIT:     809903  MISS:    1317326  HIT %:    38.0731  MISS %:    61.9269   MPKI: 26.3465
LLC LOAD      ACCESS:     618780  HIT:     102105  MISS:     516675  HIT %:     16.501  MISS %:     83.499   MPKI: 10.3335
LLC RFO       ACCESS:     138012  HIT:      18813  MISS:     119199  HIT %:    13.6314  MISS %:    86.3686   MPKI: 2.38398
LLC PREFETCH  ACCESS:     785066  HIT:     150784  MISS:     634282  HIT %:    19.2065  MISS %:    80.7935   MPKI: 12.6856
AGUS PREFETCH L1 MISS: 0
LLC WRITEBACK ACCESS:     447587  HIT:     446030  MISS:       1557  HIT %:    99.6521  MISS %:   0.347865   MPKI: 0.03114
LLC LOAD TRANSLATION ACCESS:      51198  HIT:      37365  MISS:      13833  HIT %:    72.9814  MISS %:    27.0186   MPKI: 0.27666
LLC TRANSLATION FROM L1D PREFETCHER ACCESS:      86586  HIT:      54806  MISS:      31780  HIT %:    63.2966  MISS %:    36.7034   MPKI: 0.6356
LLC PREFETCH  REQUESTED:          0  ISSUED:          0  USEFUL:      44643  USELESS:     623297
LLC USEFUL LOAD PREFETCHES:      44643 PREFETCH ISSUED TO LOWER LEVEL:     634282  ACCURACY: 7.03835
LLC TIMELY PREFETCHES:      44643 LATE PREFETCHES: 0 DROPPED PREFETCHES: 0
LLC PREFETCHES SAME FILL-ORIGIN LEVEL: 0 DIFFERENT FILL-ORIGIN LEVEL: 0
LLC AVERAGE MISS LATENCY: 178.047 cycles
LLC RQ	ACCESS:     894577	FORWARD:          0	MERGED:          0	TO_CACHE:     894576
LLC WQ	ACCESS:     447587	FORWARD:          1	MERGED:          0	TO_CACHE:     447587
LLC PQ	ACCESS:     785066	FORWARD:          0	MERGED:          0	TO_CACHE:     785066

LLC Dense regions hint to LLC: 0

RAW hits: 834990
Loads Generated: 14875436
Loads sent to L1D: 14040446
Stores Generated: 8476009
Stores sent to L1D: 8476021
Major fault: 0 Minor fault: 33441
Allocated PAGES: 33441

stream: 
stream:times selected: 4303238
stream:pref_filled: 749317
stream:pref_useful: 120783
stream:pref_late: 14617
stream:misses: 124417
stream:misses_by_poll: 0

CS: 
CS:times selected: 59405
CS:pref_filled: 19424
CS:pref_useful: 2165
CS:pref_late: 221
CS:misses: 1336
CS:misses_by_poll: 1

CPLX: 
CPLX:times selected: 4262833
CPLX:pref_filled: 235964
CPLX:pref_useful: 8157
CPLX:pref_late: 1087
CPLX:misses: 385857
CPLX:misses_by_poll: 127

NL_L1: 
NL:times selected: 17815
NL:pref_filled: 4770
NL:pref_useful: 590
NL:pref_late: 87
NL:misses: 2974
NL:misses_by_poll: 0

total selections: 8643291
total_filled: 1003306
total_useful: 293922
total_late: 17512
total_polluted: 128
total_misses_after_warmup: 857957
conflicts: 4579563

test: 2645444
ISB Prefetcher final stats
Training Unit Size: 372
Addr table size: 263578 263851


Triggers: 4303241
No Prediction: 508723 11.8219
Stream end: 3549797
No translation: 3564409009 82830.8
Predictions: 3244658 75.4003


Stream divergence: 779068 18.1042
Stream divergence -- new stream: 0

DRAM Statistics
 CHANNEL 0
 RQ ROW_BUFFER_HIT:     121624  ROW_BUFFER_MISS:    1194110
 DBUS_CONGESTED:        431
 WQ ROW_BUFFER_HIT:     111346  ROW_BUFFER_MISS:     272417  FULL:          0

 AVG_CONGESTED_CYCLE: 4
 All warmup complete: 2
Channel 0 Bank busy for read cycles: 0
Channel 0 Bank busy for write cycles: 0
Channel 0
Rank 0
0banks busy for read cycles: 53722819
0banks busy for write cycles: 118292
1banks busy for read cycles: 53361446
1banks busy for write cycles: 17933739
2banks busy for read cycles: 25941457
2banks busy for write cycles: 9627015
3banks busy for read cycles: 12028333
3banks busy for write cycles: 5520715
4banks busy for read cycles: 5736615
4banks busy for write cycles: 3257291
5banks busy for read cycles: 2621043
5banks busy for write cycles: 1855962
6banks busy for read cycles: 949356
6banks busy for write cycles: 997418
7banks busy for read cycles: 256096
7banks busy for write cycles: 528835
8banks busy for read cycles: 41606
8banks busy for write cycles: 283067

CPU 0 Branch Prediction Accuracy: 94.0755% MPKI: 14.2353 Average ROB Occupancy at Mispredict: 26.1223
Branch types
NOT_BRANCH: 37985796 75.9716%
BRANCH_DIRECT_JUMP: 964405 1.92881%
BRANCH_INDIRECT: 140341 0.280682%
BRANCH_CONDITIONAL: 7911981 15.824%
BRANCH_DIRECT_CALL: 1294152 2.5883%
BRANCH_INDIRECT_CALL: 204449 0.408898%
BRANCH_RETURN: 1498606 2.99721%
BRANCH_OTHER: 0 0%

DRAM PAGES: 1048576
Allocated PAGES: 33441
