
*** ChampSim Multicore Out-of-Order Simulator ***

Warmup Instructions: 50000000
Simulation Instructions: 50000000
Number of CPUs: 1
LLC sets: 2048
LLC ways: 16
Off-chip DRAM Size: 4096 MB Channels: 1 Width: 64-bit Data Rate: 6400 MT/s
CPU 0 runs traces/SPEC-CPU2017/471.omnetpp-188B.champsimtrace.xz
.xz
CPU 0 Bimodal branch predictor
BTB has LRU replacement policy
ITLB has LRU replacement policy
DTLB has LRU replacement policy
STLB has LRU replacement policy
L1I has LRU replacement policy
L1D has LRU replacement policy
L2C has LRU replacement policy
LLC has LRU replacement policy
Heartbeat CPU 0 instructions: 10000001 cycles: 3262987 heartbeat IPC: 3.06468 cumulative IPC: 3.06468 (Simulation time: 0 hr 1 min 4 sec) 
Heartbeat CPU 0 instructions: 20000000 cycles: 6484990 heartbeat IPC: 3.10366 cumulative IPC: 3.08404 (Simulation time: 0 hr 2 min 5 sec) 
Heartbeat CPU 0 instructions: 30000000 cycles: 9729473 heartbeat IPC: 3.08216 cumulative IPC: 3.08341 (Simulation time: 0 hr 3 min 8 sec) 
Heartbeat CPU 0 instructions: 40000000 cycles: 12965012 heartbeat IPC: 3.09068 cumulative IPC: 3.08523 (Simulation time: 0 hr 4 min 11 sec) 
Heartbeat CPU 0 instructions: 50000003 cycles: 16187606 heartbeat IPC: 3.10309 cumulative IPC: 3.08878 (Simulation time: 0 hr 5 min 13 sec) 

Warmup complete CPU 0 instructions: 50000003 cycles: 16187606 (Simulation time: 0 hr 5 min 13 sec) 

Heartbeat CPU 0 instructions: 60000000 cycles: 51858711 heartbeat IPC: 0.280339 cumulative IPC: 0.280339 (Simulation time: 0 hr 6 min 15 sec) 
Heartbeat CPU 0 instructions: 70000001 cycles: 86379013 heartbeat IPC: 0.289685 cumulative IPC: 0.284935 (Simulation time: 0 hr 7 min 19 sec) 
Heartbeat CPU 0 instructions: 80000000 cycles: 121223056 heartbeat IPC: 0.286993 cumulative IPC: 0.285618 (Simulation time: 0 hr 8 min 26 sec) 
Heartbeat CPU 0 instructions: 90000003 cycles: 156069389 heartbeat IPC: 0.286974 cumulative IPC: 0.285956 (Simulation time: 0 hr 9 min 31 sec) 
Heartbeat CPU 0 instructions: 100000000 cycles: 191244642 heartbeat IPC: 0.284291 cumulative IPC: 0.285621 (Simulation time: 0 hr 10 min 39 sec) 
Finished CPU 0 instructions: 50000000 cycles: 175057045 cumulative IPC: 0.285621 (Simulation time: 0 hr 10 min 39 sec) 

ChampSim completed all CPUs

Region of Interest Statistics

CPU 0 cumulative IPC: 0.285621 instructions: 50000000 cycles: 175057045
ITLB TOTAL     ACCESS:    8716789  HIT:    8699586  MISS:      17203  HIT %:    99.8026  MISS %:   0.197355   MPKI: 0.34406
ITLB LOAD TRANSLATION ACCESS:    8716789  HIT:    8699586  MISS:      17203  HIT %:    99.8026  MISS %:   0.197355   MPKI: 0.34406
ITLB PREFETCH  REQUESTED:          0  ISSUED:          0  USEFUL:          0  USELESS:          0
ITLB USEFUL LOAD PREFETCHES:          0 PREFETCH ISSUED TO LOWER LEVEL:          0  ACCURACY: -nan
ITLB TIMELY PREFETCHES:          0 LATE PREFETCHES: 0 DROPPED PREFETCHES: 0
ITLB PREFETCHES SAME FILL-ORIGIN LEVEL: 0 DIFFERENT FILL-ORIGIN LEVEL: 0
ITLB AVERAGE MISS LATENCY: 12.0066 cycles
ITLB RQ	ACCESS:    9805605	FORWARD:          0	MERGED:    1081200	TO_CACHE:    8724405

DTLB TOTAL     ACCESS:   14689856  HIT:   13732151  MISS:     957705  HIT %:    93.4805  MISS %:     6.5195   MPKI: 19.1541
DTLB LOAD TRANSLATION ACCESS:   14689856  HIT:   13732151  MISS:     957705  HIT %:    93.4805  MISS %:     6.5195   MPKI: 19.1541
DTLB PREFETCH  REQUESTED:          0  ISSUED:          0  USEFUL:          0  USELESS:          0
DTLB USEFUL LOAD PREFETCHES:          0 PREFETCH ISSUED TO LOWER LEVEL:          0  ACCURACY: -nan
DTLB TIMELY PREFETCHES:          0 LATE PREFETCHES: 0 DROPPED PREFETCHES: 0
DTLB PREFETCHES SAME FILL-ORIGIN LEVEL: 0 DIFFERENT FILL-ORIGIN LEVEL: 0
DTLB AVERAGE MISS LATENCY: 16.9797 cycles
DTLB RQ	ACCESS:   17851001	FORWARD:          0	MERGED:    3116445	TO_CACHE:   14734556

STLB TOTAL     ACCESS:    2146322  HIT:    1787192  MISS:     359130  HIT %:    83.2677  MISS %:    16.7323   MPKI: 7.1826
STLB LOAD TRANSLATION ACCESS:     974908  HIT:     867623  MISS:     107285  HIT %:    88.9954  MISS %:    11.0046   MPKI: 2.1457
STLB TRANSLATION FROM L1D PREFETCHER ACCESS:    1171414  HIT:     919569  MISS:     251845  HIT %:    78.5008  MISS %:    21.4992   MPKI: 5.0369
STLB PREFETCH  REQUESTED:          0  ISSUED:          0  USEFUL:     158709  USELESS:      92894
STLB USEFUL LOAD PREFETCHES:     158709 PREFETCH ISSUED TO LOWER LEVEL:          0  ACCURACY: inf
STLB TIMELY PREFETCHES:     158709 LATE PREFETCHES: 494 DROPPED PREFETCHES: 0
STLB PREFETCHES SAME FILL-ORIGIN LEVEL: 0 DIFFERENT FILL-ORIGIN LEVEL: 0
STLB AVERAGE MISS LATENCY: 106.616 cycles
STLB RQ	ACCESS:    2282381	FORWARD:          0	MERGED:     134301	TO_CACHE:    2148080

STLB Hit, L1D data hit: 0
STLB Hit, L2C data hit: 0
STLB Hit, LLC data hit: 0
STLB Hit, LLC data miss: 0
STLB STLB hints to L2: 0
L1D TOTAL     ACCESS:   18655096  HIT:   16809593  MISS:    1845503  HIT %:    90.1072  MISS %:    9.89276   MPKI: 36.9101
L1D LOAD      ACCESS:    9497940  HIT:    8878483  MISS:     619457  HIT %:     93.478  MISS %:    6.52201   MPKI: 12.3891
L1D RFO       ACCESS:    7899239  HIT:    7743068  MISS:     156171  HIT %:     98.023  MISS %:    1.97704   MPKI: 3.12342
L1D PREFETCH  ACCESS:    1257917  HIT:     188042  MISS:    1069875  HIT %:    14.9487  MISS %:    85.0513   MPKI: 21.3975
AGUS PREFETCH L1 MISS: 0
L1D PREFETCH  REQUESTED:    2694671  ISSUED:    2615002  USEFUL:     437147  USELESS:     632825
L1D USEFUL LOAD PREFETCHES:     437147 PREFETCH ISSUED TO LOWER LEVEL:    1082009  ACCURACY: 40.4014
L1D TIMELY PREFETCHES:     437147 LATE PREFETCHES: 11432 DROPPED PREFETCHES: 0
L1D PREFETCHES SAME FILL-ORIGIN LEVEL: 1082009 DIFFERENT FILL-ORIGIN LEVEL: 0
L1D AVERAGE MISS LATENCY: 154.512 cycles
L1D RQ	ACCESS:   14078765	FORWARD:          0	MERGED:    4056620	TO_CACHE:    9569229
L1D WQ	ACCESS:    8476021	FORWARD:     452972	MERGED:     194249	TO_CACHE:    8281772
L1D PQ	ACCESS:    1307529	FORWARD:          0	MERGED:          0	TO_CACHE:    1307473

L1D UNIQUE REGIONS ACCESSED: 0
L1D REGIONS CONFLICTS: 0
L1D Cross Page Prefetch Requests: 1439197
L1D Same Page Prefetch Requests: 1018154
L1D ROI Sum of L1D PQ occupancy: 65561479
L1D PREFETCHES PUSHED FROM L2C: 0
L1I TOTAL     ACCESS:    9805307  HIT:    9803766  MISS:       1541  HIT %:    99.9843  MISS %:   0.015716   MPKI: 0.03082
L1I LOAD      ACCESS:    9805307  HIT:    9803766  MISS:       1541  HIT %:    99.9843  MISS %:   0.015716   MPKI: 0.03082
L1I PREFETCH  REQUESTED:          0  ISSUED:          0  USEFUL:          0  USELESS:          0
L1I USEFUL LOAD PREFETCHES:          0 PREFETCH ISSUED TO LOWER LEVEL:          0  ACCURACY: -nan
L1I TIMELY PREFETCHES:          0 LATE PREFETCHES: 0 DROPPED PREFETCHES: 0
L1I PREFETCHES SAME FILL-ORIGIN LEVEL: 0 DIFFERENT FILL-ORIGIN LEVEL: 0
L1I AVERAGE MISS LATENCY: 158.572 cycles
L1I RQ	ACCESS:   14760194	FORWARD:          0	MERGED:    4954589	TO_CACHE:    9805605

BTB TOTAL     ACCESS:   10008119  HIT:    9487971  MISS:     520148  HIT %:    94.8027  MISS %:    5.19726   MPKI: 10.403
BTB BRANCH_DIRECT_JUMP	ACCESS:     964405  HIT:     964243  MISS:        162
BTB BRANCH_INDIRECT	ACCESS:     140341  HIT:     116325  MISS:      24016
BTB BRANCH_CONDITIONAL	ACCESS:    5906166  HIT:    5905777  MISS:        389
BTB BRANCH_DIRECT_CALL	ACCESS:    1294152  HIT:    1293861  MISS:        291
BTB BRANCH_INDIRECT_CALL	ACCESS:     204449  HIT:     203146  MISS:       1303
BTB BRANCH_RETURN	ACCESS:    1498606  HIT:    1004619  MISS:     493987
BTB BRANCH_OTHER ACCESS:          0  HIT:          0  MISS:          0

L2C TOTAL     ACCESS:    2748734  HIT:    1179164  MISS:    1569570  HIT %:    42.8984  MISS %:    57.1016   MPKI: 31.3914
L2C LOAD      ACCESS:     609539  HIT:     181248  MISS:     428291  HIT %:    29.7353  MISS %:    70.2647   MPKI: 8.56582
L2C DATA LOAD MPKI: 8.53872
L2C INSTRUCTION LOAD MPKI: 0.0271
L2C RFO       ACCESS:     155469  HIT:      14282  MISS:     141187  HIT %:     9.1864  MISS %:    90.8136   MPKI: 2.82374
L2C PREFETCH  ACCESS:    1081991  HIT:     224902  MISS:     857089  HIT %:    20.7859  MISS %:    79.2141   MPKI: 17.1418
AGUS PREFETCH L1 MISS: 0
L2C DATA PREFETCH MPKI: 17.1418
L2C INSTRUCTION PREFETCH MPKI: 0
L2C WRITEBACK ACCESS:     506743  HIT:     505160  MISS:       1583  HIT %:    99.6876  MISS %:   0.312387   MPKI: 0.03166
L2C LOAD TRANSLATION ACCESS:     116325  HIT:      79444  MISS:      36881  HIT %:    68.2949  MISS %:    31.7051   MPKI: 0.73762
L2C TRANSLATION FROM L1D PREFETCHER ACCESS:     278667  HIT:     174128  MISS:     104539  HIT %:     62.486  MISS %:     37.514   MPKI: 2.09078
L2C PREFETCH  REQUESTED:          0  ISSUED:          0  USEFUL:     135975  USELESS:     825721
L2C USEFUL LOAD PREFETCHES:     135975 PREFETCH ISSUED TO LOWER LEVEL:     857089  ACCURACY: 15.8647
L2C TIMELY PREFETCHES:     135975 LATE PREFETCHES: 0 DROPPED PREFETCHES: 0
L2C PREFETCHES SAME FILL-ORIGIN LEVEL: 0 DIFFERENT FILL-ORIGIN LEVEL: 0
L2C AVERAGE MISS LATENCY: 171.262 cycles
L2C RQ	ACCESS:    1160027	FORWARD:          0	MERGED:          0	TO_CACHE:    1160000
L2C WQ	ACCESS:     506743	FORWARD:         45	MERGED:          0	TO_CACHE:     506743
L2C PQ	ACCESS:    1082009	FORWARD:          0	MERGED:          0	TO_CACHE:    1081991

L2C Instructions Evicting Data 1257
L2C Translations Evicting Data 128181
L2C Data Evicting Data 1295313
L2C Instructions Evicting Instructions 7
L2C Translations Evicting Instructions 108
L2C Data Evicting Instructions 1239
L2C Instructions Evicting Translations 91
L2C Translations Evicting Translations 13131
L2C Data Evicting Translations 128660
L2C Dense regions hint from L2: 0
PSCL5 TOTAL     ACCESS:     359130  HIT:     359130  MISS:          0  HIT %:        100  MISS %:          0   MPKI: 0
PSCL5 LOAD TRANSLATION ACCESS:     106791  HIT:     106791  MISS:          0  HIT %:        100  MISS %:          0   MPKI: 0
PSCL5 TRANSLATION FROM L1D PREFETCHER ACCESS:     252339  HIT:     252339  MISS:          0  HIT %:        100  MISS %:          0   MPKI: 0
PSCL5 PREFETCH  REQUESTED:          0  ISSUED:          0  USEFUL:          0  USELESS:          0
PSCL5 USEFUL LOAD PREFETCHES:          0 PREFETCH ISSUED TO LOWER LEVEL:          0  ACCURACY: -nan
PSCL5 TIMELY PREFETCHES:          0 LATE PREFETCHES: 0 DROPPED PREFETCHES: 0
PSCL5 PREFETCHES SAME FILL-ORIGIN LEVEL: 0 DIFFERENT FILL-ORIGIN LEVEL: 0

PSCL4 TOTAL     ACCESS:     359130  HIT:     359130  MISS:          0  HIT %:        100  MISS %:          0   MPKI: 0
PSCL4 LOAD TRANSLATION ACCESS:     106791  HIT:     106791  MISS:          0  HIT %:        100  MISS %:          0   MPKI: 0
PSCL4 TRANSLATION FROM L1D PREFETCHER ACCESS:     252339  HIT:     252339  MISS:          0  HIT %:        100  MISS %:          0   MPKI: 0
PSCL4 PREFETCH  REQUESTED:          0  ISSUED:          0  USEFUL:          0  USELESS:          0
PSCL4 USEFUL LOAD PREFETCHES:          0 PREFETCH ISSUED TO LOWER LEVEL:          0  ACCURACY: -nan
PSCL4 TIMELY PREFETCHES:          0 LATE PREFETCHES: 0 DROPPED PREFETCHES: 0
PSCL4 PREFETCHES SAME FILL-ORIGIN LEVEL: 0 DIFFERENT FILL-ORIGIN LEVEL: 0

PSCL3 TOTAL     ACCESS:     359130  HIT:     359130  MISS:          0  HIT %:        100  MISS %:          0   MPKI: 0
PSCL3 LOAD TRANSLATION ACCESS:     106791  HIT:     106791  MISS:          0  HIT %:        100  MISS %:          0   MPKI: 0
PSCL3 TRANSLATION FROM L1D PREFETCHER ACCESS:     252339  HIT:     252339  MISS:          0  HIT %:        100  MISS %:          0   MPKI: 0
PSCL3 PREFETCH  REQUESTED:          0  ISSUED:          0  USEFUL:          0  USELESS:          0
PSCL3 USEFUL LOAD PREFETCHES:          0 PREFETCH ISSUED TO LOWER LEVEL:          0  ACCURACY: -nan
PSCL3 TIMELY PREFETCHES:          0 LATE PREFETCHES: 0 DROPPED PREFETCHES: 0
PSCL3 PREFETCHES SAME FILL-ORIGIN LEVEL: 0 DIFFERENT FILL-ORIGIN LEVEL: 0

PSCL2 TOTAL     ACCESS:     359130  HIT:     323267  MISS:      35863  HIT %:    90.0139  MISS %:    9.98608   MPKI: 0.71726
PSCL2 LOAD TRANSLATION ACCESS:     133119  HIT:      97256  MISS:      35863  HIT %:    73.0594  MISS %:    26.9406   MPKI: 0.71726
PSCL2 TRANSLATION FROM L1D PREFETCHER ACCESS:     226011  HIT:     226011  MISS:          0  HIT %:        100  MISS %:          0   MPKI: 0
PSCL2 PREFETCH  REQUESTED:          0  ISSUED:          0  USEFUL:          0  USELESS:          0
PSCL2 USEFUL LOAD PREFETCHES:          0 PREFETCH ISSUED TO LOWER LEVEL:          0  ACCURACY: -nan
PSCL2 TIMELY PREFETCHES:          0 LATE PREFETCHES: 0 DROPPED PREFETCHES: 0
PSCL2 PREFETCHES SAME FILL-ORIGIN LEVEL: 0 DIFFERENT FILL-ORIGIN LEVEL: 0

LLC TOTAL     ACCESS:    2015429  HIT:     840360  MISS:    1175069  HIT %:    41.6963  MISS %:    58.3037   MPKI: 23.5014
LLC LOAD      ACCESS:     428291  HIT:      91574  MISS:     336717  HIT %:    21.3813  MISS %:    78.6187   MPKI: 6.73434
LLC RFO       ACCESS:     141187  HIT:      20049  MISS:     121138  HIT %:    14.2003  MISS %:    85.7997   MPKI: 2.42276
LLC PREFETCH  ACCESS:     857086  HIT:     179095  MISS:     677991  HIT %:    20.8958  MISS %:    79.1042   MPKI: 13.5598
AGUS PREFETCH L1 MISS: 0
LLC WRITEBACK ACCESS:     447445  HIT:     446347  MISS:       1098  HIT %:    99.7546  MISS %:   0.245393   MPKI: 0.02196
LLC LOAD TRANSLATION ACCESS:      36881  HIT:      28952  MISS:       7929  HIT %:    78.5011  MISS %:    21.4989   MPKI: 0.15858
LLC TRANSLATION FROM L1D PREFETCHER ACCESS:     104539  HIT:      74343  MISS:      30196  HIT %:    71.1151  MISS %:    28.8849   MPKI: 0.60392
LLC PREFETCH  REQUESTED:          0  ISSUED:          0  USEFUL:      50024  USELESS:     656848
LLC USEFUL LOAD PREFETCHES:      50024 PREFETCH ISSUED TO LOWER LEVEL:     677991  ACCURACY: 7.37827
LLC TIMELY PREFETCHES:      50024 LATE PREFETCHES: 0 DROPPED PREFETCHES: 0
LLC PREFETCHES SAME FILL-ORIGIN LEVEL: 0 DIFFERENT FILL-ORIGIN LEVEL: 0
LLC AVERAGE MISS LATENCY: 188.659 cycles
LLC RQ	ACCESS:     710898	FORWARD:          0	MERGED:          0	TO_CACHE:     710898
LLC WQ	ACCESS:     447445	FORWARD:          3	MERGED:          0	TO_CACHE:     447445
LLC PQ	ACCESS:     857089	FORWARD:          0	MERGED:          0	TO_CACHE:     857086

LLC Dense regions hint to LLC: 0

RAW hits: 796667
Loads Generated: 14875432
Loads sent to L1D: 14078765
Stores Generated: 8476008
Stores sent to L1D: 8476021
Major fault: 0 Minor fault: 33441
Allocated PAGES: 33441

stream: 
stream:times selected: 1008707
stream:pref_reqs: 981495
stream:pref_reqs_filtered_out: 33475
stream:pref_filled: 613758
stream:pref_useful: 101579
stream:pref_late: 12515
stream:misses: 96244
stream:misses_by_poll: 0

CS: 
CS:times selected: 19295
CS:pref_reqs: 19503
CS:pref_reqs_filtered_out: 4867
CS:pref_filled: 9156
CS:pref_useful: 1352
CS:pref_late: 98
CS:misses: 2058
CS:misses_by_poll: 3

CPLX: 
CPLX:times selected: 998654
CPLX:pref_reqs: 30335
CPLX:pref_reqs_filtered_out: 5301
CPLX:pref_filled: 22482
CPLX:pref_useful: 2086
CPLX:pref_late: 71
CPLX:misses: 294819
CPLX:misses_by_poll: 2

ISB: 
ISB:times selected:601504
ISB:pref_reqs: 1756146
ISB:pref_reqs_filtered_out: 92773
ISB:pref_filled: 1319621
ISB:pref_useful: 646698
ISB:pref_late: 7726
ISB:misses: 568924
ISB:misses_by_poll: 6665
ISB:Stream end: 391498
ISB:No Prediction: 407207 40.369
ISB:No translation: 397279504 39384.9
ISB:Predictions: 1489794 147.693

NL_L1: 
NL:times selected: 5915
NL:pref_reqs: 5915
NL:pref_reqs_filtered_out: 417
NL:pref_filled: 3779
NL:pref_useful: 733
NL:pref_late: 89
NL:misses: 5889
NL:misses_by_poll: 1

total selections: 2634075
total_filled: 1069875
total_useful: 437147
total_late: 21673
total_polluted: 6671
total_misses_after_warmup: 690746
conflicts: 132786

test: 703870

DRAM Statistics
 CHANNEL 0
 RQ ROW_BUFFER_HIT:     126513  ROW_BUFFER_MISS:    1047436
 DBUS_CONGESTED:        262
 WQ ROW_BUFFER_HIT:      61367  ROW_BUFFER_MISS:     315985  FULL:          0

 AVG_CONGESTED_CYCLE: 4
 All warmup complete: 2
Channel 0 Bank busy for read cycles: 0
Channel 0 Bank busy for write cycles: 0
Channel 0
Rank 0
0banks busy for read cycles: 64799499
0banks busy for write cycles: 112725
1banks busy for read cycles: 34542889
1banks busy for write cycles: 14210590
2banks busy for read cycles: 20650744
2banks busy for write cycles: 7492174
3banks busy for read cycles: 10204658
3banks busy for write cycles: 4553562
4banks busy for read cycles: 6201861
4banks busy for write cycles: 2859119
5banks busy for read cycles: 3712206
5banks busy for write cycles: 1738870
6banks busy for read cycles: 1629220
6banks busy for write cycles: 1020991
7banks busy for read cycles: 464356
7banks busy for write cycles: 543667
8banks busy for read cycles: 74048
8banks busy for write cycles: 245867

CPU 0 Branch Prediction Accuracy: 94.0755% MPKI: 14.2353 Average ROB Occupancy at Mispredict: 25.5871
Branch types
NOT_BRANCH: 37985796 75.9716%
BRANCH_DIRECT_JUMP: 964405 1.92881%
BRANCH_INDIRECT: 140341 0.280682%
BRANCH_CONDITIONAL: 7911981 15.824%
BRANCH_DIRECT_CALL: 1294152 2.5883%
BRANCH_INDIRECT_CALL: 204449 0.408898%
BRANCH_RETURN: 1498606 2.99721%
BRANCH_OTHER: 0 0%

DRAM PAGES: 1048576
Allocated PAGES: 33441
