
*** ChampSim Multicore Out-of-Order Simulator ***

Warmup Instructions: 50000000
Simulation Instructions: 50000000
Number of CPUs: 1
LLC sets: 2048
LLC ways: 16
Off-chip DRAM Size: 4096 MB Channels: 1 Width: 64-bit Data Rate: 6400 MT/s
CPU 0 runs traces/SPEC-CPU2017/471.omnetpp-188B.champsimtrace.xz
.xz
CPU 0 Bimodal branch predictor
BTB has LRU replacement policy
ITLB has LRU replacement policy
DTLB has LRU replacement policy
STLB has LRU replacement policy
L1I has LRU replacement policy
L1D has LRU replacement policy
L2C has LRU replacement policy
LLC has LRU replacement policy
Heartbeat CPU 0 instructions: 10000001 cycles: 3270120 heartbeat IPC: 3.05799 cumulative IPC: 3.05799 (Simulation time: 0 hr 3 min 58 sec) 
Heartbeat CPU 0 instructions: 20000000 cycles: 6498278 heartbeat IPC: 3.09774 cumulative IPC: 3.07774 (Simulation time: 0 hr 7 min 43 sec) 
Heartbeat CPU 0 instructions: 30000000 cycles: 9744829 heartbeat IPC: 3.08019 cumulative IPC: 3.07856 (Simulation time: 0 hr 11 min 38 sec) 
Heartbeat CPU 0 instructions: 40000000 cycles: 12981194 heartbeat IPC: 3.08989 cumulative IPC: 3.08138 (Simulation time: 0 hr 15 min 29 sec) 
Heartbeat CPU 0 instructions: 50000003 cycles: 16207563 heartbeat IPC: 3.09946 cumulative IPC: 3.08498 (Simulation time: 0 hr 19 min 21 sec) 

Warmup complete CPU 0 instructions: 50000003 cycles: 16207563 (Simulation time: 0 hr 19 min 21 sec) 

Heartbeat CPU 0 instructions: 60000000 cycles: 55813110 heartbeat IPC: 0.25249 cumulative IPC: 0.25249 (Simulation time: 0 hr 20 min 52 sec) 
Heartbeat CPU 0 instructions: 70000001 cycles: 93981829 heartbeat IPC: 0.261995 cumulative IPC: 0.257154 (Simulation time: 0 hr 22 min 27 sec) 
Heartbeat CPU 0 instructions: 80000000 cycles: 133812899 heartbeat IPC: 0.25106 cumulative IPC: 0.25509 (Simulation time: 0 hr 24 min 6 sec) 
Heartbeat CPU 0 instructions: 90000003 cycles: 173887390 heartbeat IPC: 0.249535 cumulative IPC: 0.253679 (Simulation time: 0 hr 25 min 41 sec) 
Heartbeat CPU 0 instructions: 100000000 cycles: 213772873 heartbeat IPC: 0.250718 cumulative IPC: 0.253081 (Simulation time: 0 hr 27 min 18 sec) 
Finished CPU 0 instructions: 50000000 cycles: 197565319 cumulative IPC: 0.253081 (Simulation time: 0 hr 27 min 18 sec) 

ChampSim completed all CPUs

Region of Interest Statistics

CPU 0 cumulative IPC: 0.253081 instructions: 50000000 cycles: 197565319
ITLB TOTAL     ACCESS:    8720895  HIT:    8703692  MISS:      17203  HIT %:    99.8027  MISS %:   0.197262   MPKI: 0.34406
ITLB LOAD TRANSLATION ACCESS:    8720895  HIT:    8703692  MISS:      17203  HIT %:    99.8027  MISS %:   0.197262   MPKI: 0.34406
ITLB PREFETCH  REQUESTED:          0  ISSUED:          0  USEFUL:          0  USELESS:          0
ITLB USEFUL LOAD PREFETCHES:          0 PREFETCH ISSUED TO LOWER LEVEL:          0  ACCURACY: -nan
ITLB TIMELY PREFETCHES:          0 LATE PREFETCHES: 0 DROPPED PREFETCHES: 0
ITLB PREFETCHES SAME FILL-ORIGIN LEVEL: 0 DIFFERENT FILL-ORIGIN LEVEL: 0
ITLB AVERAGE MISS LATENCY: 11.657 cycles
ITLB RQ	ACCESS:    9811338	FORWARD:          0	MERGED:    1082826	TO_CACHE:    8728512

DTLB TOTAL     ACCESS:   14655060  HIT:   13697583  MISS:     957477  HIT %:    93.4666  MISS %:    6.53342   MPKI: 19.1495
DTLB LOAD TRANSLATION ACCESS:   14655060  HIT:   13697583  MISS:     957477  HIT %:    93.4666  MISS %:    6.53342   MPKI: 19.1495
DTLB PREFETCH  REQUESTED:          0  ISSUED:          0  USEFUL:          0  USELESS:          0
DTLB USEFUL LOAD PREFETCHES:          0 PREFETCH ISSUED TO LOWER LEVEL:          0  ACCURACY: -nan
DTLB TIMELY PREFETCHES:          0 LATE PREFETCHES: 0 DROPPED PREFETCHES: 0
DTLB PREFETCHES SAME FILL-ORIGIN LEVEL: 0 DIFFERENT FILL-ORIGIN LEVEL: 0
DTLB AVERAGE MISS LATENCY: 20.4527 cycles
DTLB RQ	ACCESS:   17830137	FORWARD:          0	MERGED:    3129880	TO_CACHE:   14700257

STLB TOTAL     ACCESS:    3403318  HIT:    3133122  MISS:     270196  HIT %:    92.0608  MISS %:    7.93919   MPKI: 5.40392
STLB LOAD TRANSLATION ACCESS:     974680  HIT:     829601  MISS:     145079  HIT %:    85.1152  MISS %:    14.8848   MPKI: 2.90158
STLB TRANSLATION FROM L1D PREFETCHER ACCESS:    2428638  HIT:    2303521  MISS:     125117  HIT %:    94.8483  MISS %:    5.15174   MPKI: 2.50234
STLB PREFETCH  REQUESTED:          0  ISSUED:          0  USEFUL:      96874  USELESS:      28192
STLB USEFUL LOAD PREFETCHES:      96874 PREFETCH ISSUED TO LOWER LEVEL:          0  ACCURACY: inf
STLB TIMELY PREFETCHES:      96874 LATE PREFETCHES: 1312 DROPPED PREFETCHES: 0
STLB PREFETCHES SAME FILL-ORIGIN LEVEL: 0 DIFFERENT FILL-ORIGIN LEVEL: 0
STLB AVERAGE MISS LATENCY: 82.0888 cycles
STLB RQ	ACCESS:    3943298	FORWARD:          0	MERGED:     536233	TO_CACHE:    3407065

STLB Hit, L1D data hit: 0
STLB Hit, L2C data hit: 0
STLB Hit, LLC data hit: 0
STLB Hit, LLC data miss: 0
STLB STLB hints to L2: 0
L1D TOTAL     ACCESS:   20231908  HIT:   18457603  MISS:    1774305  HIT %:    91.2302  MISS %:    8.76984   MPKI: 35.4861
L1D LOAD      ACCESS:    9469001  HIT:    8682600  MISS:     786401  HIT %:     91.695  MISS %:      8.305   MPKI: 15.728
L1D RFO       ACCESS:    7875915  HIT:    7718906  MISS:     157009  HIT %:    98.0065  MISS %:    1.99353   MPKI: 3.14018
L1D PREFETCH  ACCESS:    2886992  HIT:    2056097  MISS:     830895  HIT %:    71.2194  MISS %:    28.7806   MPKI: 16.6179
AGUS PREFETCH L1 MISS: 0
L1D PREFETCH  REQUESTED:    5990495  ISSUED:    5957877  USEFUL:     261112  USELESS:     569818
L1D USEFUL LOAD PREFETCHES:     261112 PREFETCH ISSUED TO LOWER LEVEL:     857899  ACCURACY: 30.4362
L1D TIMELY PREFETCHES:     261112 LATE PREFETCHES: 25494 DROPPED PREFETCHES: 0
L1D PREFETCHES SAME FILL-ORIGIN LEVEL: 857899 DIFFERENT FILL-ORIGIN LEVEL: 0
L1D AVERAGE MISS LATENCY: 158.383 cycles
L1D RQ	ACCESS:   14039895	FORWARD:          0	MERGED:    4041994	TO_CACHE:    9560129
L1D WQ	ACCESS:    8476021	FORWARD:     437935	MERGED:     206013	TO_CACHE:    8270008
L1D PQ	ACCESS:    2989259	FORWARD:          0	MERGED:      20478	TO_CACHE:    2968618

L1D UNIQUE REGIONS ACCESSED: 0
L1D REGIONS CONFLICTS: 0
L1D Cross Page Prefetch Requests: 1837558
L1D Same Page Prefetch Requests: 3853463
L1D ROI Sum of L1D PQ occupancy: 63045643
L1D PREFETCHES PUSHED FROM L2C: 0
L1I TOTAL     ACCESS:    9811041  HIT:    9809500  MISS:       1541  HIT %:    99.9843  MISS %:  0.0157068   MPKI: 0.03082
L1I LOAD      ACCESS:    9811041  HIT:    9809500  MISS:       1541  HIT %:    99.9843  MISS %:  0.0157068   MPKI: 0.03082
L1I PREFETCH  REQUESTED:          0  ISSUED:          0  USEFUL:          0  USELESS:          0
L1I USEFUL LOAD PREFETCHES:          0 PREFETCH ISSUED TO LOWER LEVEL:          0  ACCURACY: -nan
L1I TIMELY PREFETCHES:          0 LATE PREFETCHES: 0 DROPPED PREFETCHES: 0
L1I PREFETCHES SAME FILL-ORIGIN LEVEL: 0 DIFFERENT FILL-ORIGIN LEVEL: 0
L1I AVERAGE MISS LATENCY: 158.604 cycles
L1I RQ	ACCESS:   14771972	FORWARD:          0	MERGED:    4960634	TO_CACHE:    9811338

BTB TOTAL     ACCESS:   10008119  HIT:    9487971  MISS:     520148  HIT %:    94.8027  MISS %:    5.19726   MPKI: 10.403
BTB BRANCH_DIRECT_JUMP	ACCESS:     964405  HIT:     964243  MISS:        162
BTB BRANCH_INDIRECT	ACCESS:     140341  HIT:     116325  MISS:      24016
BTB BRANCH_CONDITIONAL	ACCESS:    5906166  HIT:    5905777  MISS:        389
BTB BRANCH_DIRECT_CALL	ACCESS:    1294152  HIT:    1293861  MISS:        291
BTB BRANCH_INDIRECT_CALL	ACCESS:     204449  HIT:     203146  MISS:       1303
BTB BRANCH_RETURN	ACCESS:    1498606  HIT:    1004619  MISS:     493987
BTB BRANCH_OTHER ACCESS:          0  HIT:          0  MISS:          0

L2C TOTAL     ACCESS:    2573714  HIT:     976082  MISS:    1597632  HIT %:     37.925  MISS %:     62.075   MPKI: 31.9526
L2C LOAD      ACCESS:     762425  HIT:     119407  MISS:     643018  HIT %:    15.6615  MISS %:    84.3385   MPKI: 12.8604
L2C DATA LOAD MPKI: 12.8335
L2C INSTRUCTION LOAD MPKI: 0.02688
L2C RFO       ACCESS:     155497  HIT:      11685  MISS:     143812  HIT %:    7.51461  MISS %:    92.4854   MPKI: 2.87624
L2C PREFETCH  ACCESS:     857875  HIT:     167907  MISS:     689968  HIT %:    19.5724  MISS %:    80.4276   MPKI: 13.7994
AGUS PREFETCH L1 MISS: 0
L2C DATA PREFETCH MPKI: 13.7994
L2C INSTRUCTION PREFETCH MPKI: 0
L2C WRITEBACK ACCESS:     501372  HIT:     499397  MISS:       1975  HIT %:    99.6061  MISS %:   0.393919   MPKI: 0.0395
L2C LOAD TRANSLATION ACCESS:     156420  HIT:      96349  MISS:      60071  HIT %:    61.5963  MISS %:    38.4037   MPKI: 1.20142
L2C TRANSLATION FROM L1D PREFETCHER ACCESS:     140125  HIT:      81337  MISS:      58788  HIT %:     58.046  MISS %:     41.954   MPKI: 1.17576
L2C PREFETCH  REQUESTED:          0  ISSUED:          0  USEFUL:      59118  USELESS:     689571
L2C USEFUL LOAD PREFETCHES:      59118 PREFETCH ISSUED TO LOWER LEVEL:     689969  ACCURACY: 8.56821
L2C TIMELY PREFETCHES:      59118 LATE PREFETCHES: 0 DROPPED PREFETCHES: 0
L2C PREFETCHES SAME FILL-ORIGIN LEVEL: 0 DIFFERENT FILL-ORIGIN LEVEL: 0
L2C AVERAGE MISS LATENCY: 166.402 cycles
L2C RQ	ACCESS:    1214493	FORWARD:          0	MERGED:          0	TO_CACHE:    1214467
L2C WQ	ACCESS:     501372	FORWARD:         49	MERGED:          0	TO_CACHE:     501372
L2C PQ	ACCESS:     857899	FORWARD:          0	MERGED:          0	TO_CACHE:     857876

L2C Instructions Evicting Data 1267
L2C Translations Evicting Data 109671
L2C Data Evicting Data 1363912
L2C Instructions Evicting Instructions 10
L2C Translations Evicting Instructions 92
L2C Data Evicting Instructions 1242
L2C Instructions Evicting Translations 67
L2C Translations Evicting Translations 9096
L2C Data Evicting Translations 110300
L2C Dense regions hint from L2: 0
PSCL5 TOTAL     ACCESS:     270196  HIT:     270196  MISS:          0  HIT %:        100  MISS %:          0   MPKI: 0
PSCL5 LOAD TRANSLATION ACCESS:     143767  HIT:     143767  MISS:          0  HIT %:        100  MISS %:          0   MPKI: 0
PSCL5 TRANSLATION FROM L1D PREFETCHER ACCESS:     126429  HIT:     126429  MISS:          0  HIT %:        100  MISS %:          0   MPKI: 0
PSCL5 PREFETCH  REQUESTED:          0  ISSUED:          0  USEFUL:          0  USELESS:          0
PSCL5 USEFUL LOAD PREFETCHES:          0 PREFETCH ISSUED TO LOWER LEVEL:          0  ACCURACY: -nan
PSCL5 TIMELY PREFETCHES:          0 LATE PREFETCHES: 0 DROPPED PREFETCHES: 0
PSCL5 PREFETCHES SAME FILL-ORIGIN LEVEL: 0 DIFFERENT FILL-ORIGIN LEVEL: 0

PSCL4 TOTAL     ACCESS:     270196  HIT:     270196  MISS:          0  HIT %:        100  MISS %:          0   MPKI: 0
PSCL4 LOAD TRANSLATION ACCESS:     143767  HIT:     143767  MISS:          0  HIT %:        100  MISS %:          0   MPKI: 0
PSCL4 TRANSLATION FROM L1D PREFETCHER ACCESS:     126429  HIT:     126429  MISS:          0  HIT %:        100  MISS %:          0   MPKI: 0
PSCL4 PREFETCH  REQUESTED:          0  ISSUED:          0  USEFUL:          0  USELESS:          0
PSCL4 USEFUL LOAD PREFETCHES:          0 PREFETCH ISSUED TO LOWER LEVEL:          0  ACCURACY: -nan
PSCL4 TIMELY PREFETCHES:          0 LATE PREFETCHES: 0 DROPPED PREFETCHES: 0
PSCL4 PREFETCHES SAME FILL-ORIGIN LEVEL: 0 DIFFERENT FILL-ORIGIN LEVEL: 0

PSCL3 TOTAL     ACCESS:     270196  HIT:     270196  MISS:          0  HIT %:        100  MISS %:          0   MPKI: 0
PSCL3 LOAD TRANSLATION ACCESS:     143767  HIT:     143767  MISS:          0  HIT %:        100  MISS %:          0   MPKI: 0
PSCL3 TRANSLATION FROM L1D PREFETCHER ACCESS:     126429  HIT:     126429  MISS:          0  HIT %:        100  MISS %:          0   MPKI: 0
PSCL3 PREFETCH  REQUESTED:          0  ISSUED:          0  USEFUL:          0  USELESS:          0
PSCL3 USEFUL LOAD PREFETCHES:          0 PREFETCH ISSUED TO LOWER LEVEL:          0  ACCURACY: -nan
PSCL3 TIMELY PREFETCHES:          0 LATE PREFETCHES: 0 DROPPED PREFETCHES: 0
PSCL3 PREFETCHES SAME FILL-ORIGIN LEVEL: 0 DIFFERENT FILL-ORIGIN LEVEL: 0

PSCL2 TOTAL     ACCESS:     270196  HIT:     243846  MISS:      26350  HIT %:    90.2478  MISS %:    9.75218   MPKI: 0.527
PSCL2 LOAD TRANSLATION ACCESS:     157463  HIT:     131113  MISS:      26350  HIT %:    83.2659  MISS %:    16.7341   MPKI: 0.527
PSCL2 TRANSLATION FROM L1D PREFETCHER ACCESS:     112733  HIT:     112733  MISS:          0  HIT %:        100  MISS %:          0   MPKI: 0
PSCL2 PREFETCH  REQUESTED:          0  ISSUED:          0  USEFUL:          0  USELESS:          0
PSCL2 USEFUL LOAD PREFETCHES:          0 PREFETCH ISSUED TO LOWER LEVEL:          0  ACCURACY: -nan
PSCL2 TIMELY PREFETCHES:          0 LATE PREFETCHES: 0 DROPPED PREFETCHES: 0
PSCL2 PREFETCHES SAME FILL-ORIGIN LEVEL: 0 DIFFERENT FILL-ORIGIN LEVEL: 0

LLC TOTAL     ACCESS:    2041870  HIT:     769843  MISS:    1272027  HIT %:    37.7028  MISS %:    62.2972   MPKI: 25.4405
LLC LOAD      ACCESS:     643018  HIT:     107276  MISS:     535742  HIT %:    16.6832  MISS %:    83.3168   MPKI: 10.7148
LLC RFO       ACCESS:     143812  HIT:      19246  MISS:     124566  HIT %:    13.3827  MISS %:    86.6173   MPKI: 2.49132
LLC PREFETCH  ACCESS:     689968  HIT:     122005  MISS:     567963  HIT %:    17.6827  MISS %:    82.3173   MPKI: 11.3593
AGUS PREFETCH L1 MISS: 0
LLC WRITEBACK ACCESS:     446213  HIT:     444726  MISS:       1487  HIT %:    99.6668  MISS %:   0.333249   MPKI: 0.02974
LLC LOAD TRANSLATION ACCESS:      60071  HIT:      41831  MISS:      18240  HIT %:    69.6359  MISS %:    30.3641   MPKI: 0.3648
LLC TRANSLATION FROM L1D PREFETCHER ACCESS:      58788  HIT:      34759  MISS:      24029  HIT %:     59.126  MISS %:     40.874   MPKI: 0.48058
LLC PREFETCH  REQUESTED:          0  ISSUED:          0  USEFUL:      38283  USELESS:     554990
LLC USEFUL LOAD PREFETCHES:      38283 PREFETCH ISSUED TO LOWER LEVEL:     567964  ACCURACY: 6.74039
LLC TIMELY PREFETCHES:      38283 LATE PREFETCHES: 0 DROPPED PREFETCHES: 0
LLC PREFETCHES SAME FILL-ORIGIN LEVEL: 0 DIFFERENT FILL-ORIGIN LEVEL: 0
LLC AVERAGE MISS LATENCY: 171.312 cycles
LLC RQ	ACCESS:     905689	FORWARD:          0	MERGED:          0	TO_CACHE:     905689
LLC WQ	ACCESS:     446213	FORWARD:          0	MERGED:          0	TO_CACHE:     446213
LLC PQ	ACCESS:     689969	FORWARD:          0	MERGED:          0	TO_CACHE:     689969

LLC Dense regions hint to LLC: 0

RAW hits: 835540
Loads Generated: 14875435
Loads sent to L1D: 14039895
Stores Generated: 8476009
Stores sent to L1D: 8476021
Major fault: 0 Minor fault: 33441
Allocated PAGES: 33441

stream: 
stream:times selected: 4300506
stream:pref_filled: 764342
stream:pref_useful: 135278
stream:pref_late: 15978
stream:misses: 28192
stream:misses_by_poll: 0

CS: 
CS:times selected: 56471
CS:pref_filled: 21434
CS:pref_useful: 4533
CS:pref_late: 253
CS:misses: 680
CS:misses_by_poll: 2

CPLX: 
CPLX:times selected: 4259575
CPLX:pref_filled: 234317
CPLX:pref_useful: 9269
CPLX:pref_late: 1310
CPLX:misses: 88064
CPLX:misses_by_poll: 136

ISB: 
ISB:times selected:3792410
ISB:pref_filled: 495692
ISB:pref_useful: 304104
ISB:pref_late: 18442
ISB:misses: 405880
ISB:misses_by_poll: 605

NL_L1: 
NL:times selected: 14035
NL:pref_filled: 4179
NL:pref_useful: 569
NL:pref_late: 80
NL:misses: 2541
NL:misses_by_poll: 0

total selections: 12422997
total_filled: 830895
total_useful: 261112
total_late: 38212
total_polluted: 743
total_misses_after_warmup: 877529
conflicts: 4579950

test: 2670953

DRAM Statistics
 CHANNEL 0
 RQ ROW_BUFFER_HIT:     143122  ROW_BUFFER_MISS:    1127393
 DBUS_CONGESTED:        691
 WQ ROW_BUFFER_HIT:     118082  ROW_BUFFER_MISS:     263696  FULL:          0

 AVG_CONGESTED_CYCLE: 4
 All warmup complete: 2
Channel 0 Bank busy for read cycles: 0
Channel 0 Bank busy for write cycles: 0
Channel 0
Rank 0
0banks busy for read cycles: 55033905
0banks busy for write cycles: 123116
1banks busy for read cycles: 55107766
1banks busy for write cycles: 19027473
2banks busy for read cycles: 26583692
2banks busy for write cycles: 10271432
3banks busy for read cycles: 11846004
3banks busy for write cycles: 5790611
4banks busy for read cycles: 4742803
4banks busy for write cycles: 3220599
5banks busy for read cycles: 1824093
5banks busy for write cycles: 1759978
6banks busy for read cycles: 547977
6banks busy for write cycles: 871191
7banks busy for read cycles: 127116
7banks busy for write cycles: 431902
8banks busy for read cycles: 23332
8banks busy for write cycles: 232330

CPU 0 Branch Prediction Accuracy: 94.0755% MPKI: 14.2353 Average ROB Occupancy at Mispredict: 26.2001
Branch types
NOT_BRANCH: 37985796 75.9716%
BRANCH_DIRECT_JUMP: 964405 1.92881%
BRANCH_INDIRECT: 140341 0.280682%
BRANCH_CONDITIONAL: 7911981 15.824%
BRANCH_DIRECT_CALL: 1294152 2.5883%
BRANCH_INDIRECT_CALL: 204449 0.408898%
BRANCH_RETURN: 1498606 2.99721%
BRANCH_OTHER: 0 0%

DRAM PAGES: 1048576
Allocated PAGES: 33441
