
*** ChampSim Multicore Out-of-Order Simulator ***

Warmup Instructions: 50000000
Simulation Instructions: 50000000
Number of CPUs: 1
LLC sets: 2048
LLC ways: 16
Off-chip DRAM Size: 4096 MB Channels: 1 Width: 64-bit Data Rate: 6400 MT/s
CPU 0 runs traces/SPEC-CPU2017/471.omnetpp-188B.champsimtrace.xz
.xz
CPU 0 Bimodal branch predictor
BTB has LRU replacement policy
ITLB has LRU replacement policy
DTLB has LRU replacement policy
STLB has LRU replacement policy
L1I has LRU replacement policy
L1D has LRU replacement policy
L2C has LRU replacement policy
LLC has LRU replacement policy
Heartbeat CPU 0 instructions: 10000001 cycles: 3270007 heartbeat IPC: 3.0581 cumulative IPC: 3.0581 (Simulation time: 0 hr 3 min 29 sec) 
Heartbeat CPU 0 instructions: 20000000 cycles: 6498474 heartbeat IPC: 3.09745 cumulative IPC: 3.07765 (Simulation time: 0 hr 6 min 50 sec) 
Heartbeat CPU 0 instructions: 30000000 cycles: 9749456 heartbeat IPC: 3.07599 cumulative IPC: 3.07709 (Simulation time: 0 hr 10 min 20 sec) 
Heartbeat CPU 0 instructions: 40000000 cycles: 12989555 heartbeat IPC: 3.08633 cumulative IPC: 3.0794 (Simulation time: 0 hr 13 min 45 sec) 
Heartbeat CPU 0 instructions: 50000003 cycles: 16222845 heartbeat IPC: 3.09283 cumulative IPC: 3.08207 (Simulation time: 0 hr 17 min 10 sec) 

Warmup complete CPU 0 instructions: 50000003 cycles: 16222845 (Simulation time: 0 hr 17 min 10 sec) 

Heartbeat CPU 0 instructions: 60000000 cycles: 56721568 heartbeat IPC: 0.246921 cumulative IPC: 0.246921 (Simulation time: 0 hr 18 min 13 sec) 
Heartbeat CPU 0 instructions: 70000001 cycles: 95959699 heartbeat IPC: 0.254854 cumulative IPC: 0.250825 (Simulation time: 0 hr 19 min 16 sec) 
Heartbeat CPU 0 instructions: 80000000 cycles: 137271266 heartbeat IPC: 0.242063 cumulative IPC: 0.247835 (Simulation time: 0 hr 20 min 22 sec) 
Heartbeat CPU 0 instructions: 90000003 cycles: 178645092 heartbeat IPC: 0.241699 cumulative IPC: 0.246272 (Simulation time: 0 hr 21 min 27 sec) 
Heartbeat CPU 0 instructions: 100000000 cycles: 220042817 heartbeat IPC: 0.241559 cumulative IPC: 0.245315 (Simulation time: 0 hr 22 min 31 sec) 
Finished CPU 0 instructions: 50000000 cycles: 203819981 cumulative IPC: 0.245315 (Simulation time: 0 hr 22 min 31 sec) 

ChampSim completed all CPUs

Region of Interest Statistics

CPU 0 cumulative IPC: 0.245315 instructions: 50000000 cycles: 203819981
ITLB TOTAL     ACCESS:    8723766  HIT:    8706563  MISS:      17203  HIT %:    99.8028  MISS %:   0.197197   MPKI: 0.34406
ITLB LOAD TRANSLATION ACCESS:    8723766  HIT:    8706563  MISS:      17203  HIT %:    99.8028  MISS %:   0.197197   MPKI: 0.34406
ITLB PREFETCH  REQUESTED:          0  ISSUED:          0  USEFUL:          0  USELESS:          0
ITLB USEFUL LOAD PREFETCHES:          0 PREFETCH ISSUED TO LOWER LEVEL:          0  ACCURACY: -nan
ITLB TIMELY PREFETCHES:          0 LATE PREFETCHES: 0 DROPPED PREFETCHES: 0
ITLB PREFETCHES SAME FILL-ORIGIN LEVEL: 0 DIFFERENT FILL-ORIGIN LEVEL: 0
ITLB AVERAGE MISS LATENCY: 11.7004 cycles
ITLB RQ	ACCESS:    9815382	FORWARD:          0	MERGED:    1083999	TO_CACHE:    8731383

DTLB TOTAL     ACCESS:   14657999  HIT:   13700503  MISS:     957496  HIT %:    93.4678  MISS %:    6.53224   MPKI: 19.1499
DTLB LOAD TRANSLATION ACCESS:   14657999  HIT:   13700503  MISS:     957496  HIT %:    93.4678  MISS %:    6.53224   MPKI: 19.1499
DTLB PREFETCH  REQUESTED:          0  ISSUED:          0  USEFUL:          0  USELESS:          0
DTLB USEFUL LOAD PREFETCHES:          0 PREFETCH ISSUED TO LOWER LEVEL:          0  ACCURACY: -nan
DTLB TIMELY PREFETCHES:          0 LATE PREFETCHES: 0 DROPPED PREFETCHES: 0
DTLB PREFETCHES SAME FILL-ORIGIN LEVEL: 0 DIFFERENT FILL-ORIGIN LEVEL: 0
DTLB AVERAGE MISS LATENCY: 21.6539 cycles
DTLB RQ	ACCESS:   17835963	FORWARD:          0	MERGED:    3131887	TO_CACHE:   14704076

STLB TOTAL     ACCESS:    3186714  HIT:    2886247  MISS:     300467  HIT %:    90.5713  MISS %:    9.42874   MPKI: 6.00934
STLB LOAD TRANSLATION ACCESS:     974699  HIT:     805606  MISS:     169093  HIT %:    82.6518  MISS %:    17.3482   MPKI: 3.38186
STLB TRANSLATION FROM L1D PREFETCHER ACCESS:    2212015  HIT:    2080641  MISS:     131374  HIT %:    94.0609  MISS %:    5.93911   MPKI: 2.62748
STLB PREFETCH  REQUESTED:          0  ISSUED:          0  USEFUL:      93270  USELESS:      38074
STLB USEFUL LOAD PREFETCHES:      93270 PREFETCH ISSUED TO LOWER LEVEL:          0  ACCURACY: inf
STLB TIMELY PREFETCHES:      93270 LATE PREFETCHES: 626 DROPPED PREFETCHES: 0
STLB PREFETCHES SAME FILL-ORIGIN LEVEL: 0 DIFFERENT FILL-ORIGIN LEVEL: 0
STLB AVERAGE MISS LATENCY: 81.4777 cycles
STLB RQ	ACCESS:    3651515	FORWARD:          0	MERGED:     462788	TO_CACHE:    3188727

STLB Hit, L1D data hit: 0
STLB Hit, L2C data hit: 0
STLB Hit, LLC data hit: 0
STLB Hit, LLC data miss: 0
STLB STLB hints to L2: 0
L1D TOTAL     ACCESS:   19925220  HIT:   18113423  MISS:    1811797  HIT %:     90.907  MISS %:    9.09298   MPKI: 36.2359
L1D LOAD      ACCESS:    9461795  HIT:    8618764  MISS:     843031  HIT %:    91.0902  MISS %:    8.90984   MPKI: 16.8606
L1D RFO       ACCESS:    7859466  HIT:    7695661  MISS:     163805  HIT %:    97.9158  MISS %:    2.08417   MPKI: 3.2761
L1D PREFETCH  ACCESS:    2603959  HIT:    1798998  MISS:     804961  HIT %:     69.087  MISS %:     30.913   MPKI: 16.0992
AGUS PREFETCH L1 MISS: 0
L1D PREFETCH  REQUESTED:    5443200  ISSUED:    5372543  USEFUL:     200698  USELESS:     604297
L1D USEFUL LOAD PREFETCHES:     200698 PREFETCH ISSUED TO LOWER LEVEL:     827052  ACCURACY: 24.2667
L1D TIMELY PREFETCHES:     200698 LATE PREFETCHES: 21247 DROPPED PREFETCHES: 0
L1D PREFETCHES SAME FILL-ORIGIN LEVEL: 827052 DIFFERENT FILL-ORIGIN LEVEL: 0
L1D AVERAGE MISS LATENCY: 157.55 cycles
L1D RQ	ACCESS:   14041091	FORWARD:          0	MERGED:    4044509	TO_CACHE:    9559581
L1D WQ	ACCESS:    8476021	FORWARD:     437185	MERGED:     199639	TO_CACHE:    8276382
L1D PQ	ACCESS:    2695727	FORWARD:          0	MERGED:      18727	TO_CACHE:    2676816

L1D UNIQUE REGIONS ACCESSED: 0
L1D REGIONS CONFLICTS: 0
L1D Cross Page Prefetch Requests: 1431002
L1D Same Page Prefetch Requests: 3774778
L1D ROI Sum of L1D PQ occupancy: 64252726
L1D PREFETCHES PUSHED FROM L2C: 0
L1I TOTAL     ACCESS:    9815085  HIT:    9813544  MISS:       1541  HIT %:    99.9843  MISS %:  0.0157003   MPKI: 0.03082
L1I LOAD      ACCESS:    9815085  HIT:    9813544  MISS:       1541  HIT %:    99.9843  MISS %:  0.0157003   MPKI: 0.03082
L1I PREFETCH  REQUESTED:          0  ISSUED:          0  USEFUL:          0  USELESS:          0
L1I USEFUL LOAD PREFETCHES:          0 PREFETCH ISSUED TO LOWER LEVEL:          0  ACCURACY: -nan
L1I TIMELY PREFETCHES:          0 LATE PREFETCHES: 0 DROPPED PREFETCHES: 0
L1I PREFETCHES SAME FILL-ORIGIN LEVEL: 0 DIFFERENT FILL-ORIGIN LEVEL: 0
L1I AVERAGE MISS LATENCY: 159.731 cycles
L1I RQ	ACCESS:   14780321	FORWARD:          0	MERGED:    4964939	TO_CACHE:    9815382

BTB TOTAL     ACCESS:   10008119  HIT:    9487971  MISS:     520148  HIT %:    94.8027  MISS %:    5.19726   MPKI: 10.403
BTB BRANCH_DIRECT_JUMP	ACCESS:     964405  HIT:     964243  MISS:        162
BTB BRANCH_INDIRECT	ACCESS:     140341  HIT:     116325  MISS:      24016
BTB BRANCH_CONDITIONAL	ACCESS:    5906166  HIT:    5905777  MISS:        389
BTB BRANCH_DIRECT_CALL	ACCESS:    1294152  HIT:    1293861  MISS:        291
BTB BRANCH_INDIRECT_CALL	ACCESS:     204449  HIT:     203146  MISS:       1303
BTB BRANCH_RETURN	ACCESS:    1498606  HIT:    1004619  MISS:     493987
BTB BRANCH_OTHER ACCESS:          0  HIT:          0  MISS:          0

L2C TOTAL     ACCESS:    2662832  HIT:    1016665  MISS:    1646167  HIT %:    38.1798  MISS %:    61.8202   MPKI: 32.9233
L2C LOAD      ACCESS:     823299  HIT:     126510  MISS:     696789  HIT %:    15.3662  MISS %:    84.6338   MPKI: 13.9358
L2C DATA LOAD MPKI: 13.9088
L2C INSTRUCTION LOAD MPKI: 0.02702
L2C RFO       ACCESS:     162962  HIT:      11482  MISS:     151480  HIT %:    7.04581  MISS %:    92.9542   MPKI: 3.0296
L2C PREFETCH  ACCESS:     827029  HIT:     167215  MISS:     659814  HIT %:    20.2188  MISS %:    79.7812   MPKI: 13.1963
AGUS PREFETCH L1 MISS: 0
L2C DATA PREFETCH MPKI: 13.1963
L2C INSTRUCTION PREFETCH MPKI: 0
L2C WRITEBACK ACCESS:     502330  HIT:     500268  MISS:       2062  HIT %:    99.5895  MISS %:   0.410487   MPKI: 0.04124
L2C LOAD TRANSLATION ACCESS:     188500  HIT:     121884  MISS:      66616  HIT %:    64.6599  MISS %:    35.3401   MPKI: 1.33232
L2C TRANSLATION FROM L1D PREFETCHER ACCESS:     158712  HIT:      89306  MISS:      69406  HIT %:    56.2692  MISS %:    43.7308   MPKI: 1.38812
L2C PREFETCH  REQUESTED:          0  ISSUED:          0  USEFUL:      54884  USELESS:     673852
L2C USEFUL LOAD PREFETCHES:      54884 PREFETCH ISSUED TO LOWER LEVEL:     659815  ACCURACY: 8.31809
L2C TIMELY PREFETCHES:      54884 LATE PREFETCHES: 0 DROPPED PREFETCHES: 0
L2C PREFETCHES SAME FILL-ORIGIN LEVEL: 0 DIFFERENT FILL-ORIGIN LEVEL: 0
L2C AVERAGE MISS LATENCY: 164.648 cycles
L2C RQ	ACCESS:    1333499	FORWARD:          0	MERGED:          0	TO_CACHE:    1333473
L2C WQ	ACCESS:     502330	FORWARD:         48	MERGED:          0	TO_CACHE:     502330
L2C PQ	ACCESS:     827052	FORWARD:          0	MERGED:          0	TO_CACHE:     827030

L2C Instructions Evicting Data 1260
L2C Translations Evicting Data 124247
L2C Data Evicting Data 1380758
L2C Instructions Evicting Instructions 9
L2C Translations Evicting Instructions 113
L2C Data Evicting Instructions 1228
L2C Instructions Evicting Translations 82
L2C Translations Evicting Translations 11662
L2C Data Evicting Translations 124746
L2C Dense regions hint from L2: 0
PSCL5 TOTAL     ACCESS:     300467  HIT:     300467  MISS:          0  HIT %:        100  MISS %:          0   MPKI: 0
PSCL5 LOAD TRANSLATION ACCESS:     168467  HIT:     168467  MISS:          0  HIT %:        100  MISS %:          0   MPKI: 0
PSCL5 TRANSLATION FROM L1D PREFETCHER ACCESS:     132000  HIT:     132000  MISS:          0  HIT %:        100  MISS %:          0   MPKI: 0
PSCL5 PREFETCH  REQUESTED:          0  ISSUED:          0  USEFUL:          0  USELESS:          0
PSCL5 USEFUL LOAD PREFETCHES:          0 PREFETCH ISSUED TO LOWER LEVEL:          0  ACCURACY: -nan
PSCL5 TIMELY PREFETCHES:          0 LATE PREFETCHES: 0 DROPPED PREFETCHES: 0
PSCL5 PREFETCHES SAME FILL-ORIGIN LEVEL: 0 DIFFERENT FILL-ORIGIN LEVEL: 0

PSCL4 TOTAL     ACCESS:     300467  HIT:     300467  MISS:          0  HIT %:        100  MISS %:          0   MPKI: 0
PSCL4 LOAD TRANSLATION ACCESS:     168467  HIT:     168467  MISS:          0  HIT %:        100  MISS %:          0   MPKI: 0
PSCL4 TRANSLATION FROM L1D PREFETCHER ACCESS:     132000  HIT:     132000  MISS:          0  HIT %:        100  MISS %:          0   MPKI: 0
PSCL4 PREFETCH  REQUESTED:          0  ISSUED:          0  USEFUL:          0  USELESS:          0
PSCL4 USEFUL LOAD PREFETCHES:          0 PREFETCH ISSUED TO LOWER LEVEL:          0  ACCURACY: -nan
PSCL4 TIMELY PREFETCHES:          0 LATE PREFETCHES: 0 DROPPED PREFETCHES: 0
PSCL4 PREFETCHES SAME FILL-ORIGIN LEVEL: 0 DIFFERENT FILL-ORIGIN LEVEL: 0

PSCL3 TOTAL     ACCESS:     300467  HIT:     300467  MISS:          0  HIT %:        100  MISS %:          0   MPKI: 0
PSCL3 LOAD TRANSLATION ACCESS:     168467  HIT:     168467  MISS:          0  HIT %:        100  MISS %:          0   MPKI: 0
PSCL3 TRANSLATION FROM L1D PREFETCHER ACCESS:     132000  HIT:     132000  MISS:          0  HIT %:        100  MISS %:          0   MPKI: 0
PSCL3 PREFETCH  REQUESTED:          0  ISSUED:          0  USEFUL:          0  USELESS:          0
PSCL3 USEFUL LOAD PREFETCHES:          0 PREFETCH ISSUED TO LOWER LEVEL:          0  ACCURACY: -nan
PSCL3 TIMELY PREFETCHES:          0 LATE PREFETCHES: 0 DROPPED PREFETCHES: 0
PSCL3 PREFETCHES SAME FILL-ORIGIN LEVEL: 0 DIFFERENT FILL-ORIGIN LEVEL: 0

PSCL2 TOTAL     ACCESS:     300467  HIT:     253721  MISS:      46746  HIT %:    84.4422  MISS %:    15.5578   MPKI: 0.93492
PSCL2 LOAD TRANSLATION ACCESS:     195179  HIT:     148433  MISS:      46746  HIT %:    76.0497  MISS %:    23.9503   MPKI: 0.93492
PSCL2 TRANSLATION FROM L1D PREFETCHER ACCESS:     105288  HIT:     105288  MISS:          0  HIT %:        100  MISS %:          0   MPKI: 0
PSCL2 PREFETCH  REQUESTED:          0  ISSUED:          0  USEFUL:          0  USELESS:          0
PSCL2 USEFUL LOAD PREFETCHES:          0 PREFETCH ISSUED TO LOWER LEVEL:          0  ACCURACY: -nan
PSCL2 TIMELY PREFETCHES:          0 LATE PREFETCHES: 0 DROPPED PREFETCHES: 0
PSCL2 PREFETCHES SAME FILL-ORIGIN LEVEL: 0 DIFFERENT FILL-ORIGIN LEVEL: 0

LLC TOTAL     ACCESS:    2091345  HIT:     789528  MISS:    1301817  HIT %:    37.7522  MISS %:    62.2478   MPKI: 26.0363
LLC LOAD      ACCESS:     696789  HIT:     114061  MISS:     582728  HIT %:    16.3695  MISS %:    83.6305   MPKI: 11.6546
LLC RFO       ACCESS:     151480  HIT:      20417  MISS:     131063  HIT %:    13.4783  MISS %:    86.5217   MPKI: 2.62126
LLC PREFETCH  ACCESS:     659814  HIT:     119994  MISS:     539820  HIT %:     18.186  MISS %:     81.814   MPKI: 10.7964
AGUS PREFETCH L1 MISS: 0
LLC WRITEBACK ACCESS:     447240  HIT:     445745  MISS:       1495  HIT %:    99.6657  MISS %:   0.334272   MPKI: 0.0299
LLC LOAD TRANSLATION ACCESS:      66616  HIT:      47716  MISS:      18900  HIT %:    71.6284  MISS %:    28.3716   MPKI: 0.378
LLC TRANSLATION FROM L1D PREFETCHER ACCESS:      69406  HIT:      41595  MISS:      27811  HIT %:      59.93  MISS %:      40.07   MPKI: 0.55622
LLC PREFETCH  REQUESTED:          0  ISSUED:          0  USEFUL:      36663  USELESS:     531855
LLC USEFUL LOAD PREFETCHES:      36663 PREFETCH ISSUED TO LOWER LEVEL:     539821  ACCURACY: 6.7917
LLC TIMELY PREFETCHES:      36663 LATE PREFETCHES: 0 DROPPED PREFETCHES: 0
LLC PREFETCHES SAME FILL-ORIGIN LEVEL: 0 DIFFERENT FILL-ORIGIN LEVEL: 0
LLC AVERAGE MISS LATENCY: 170.26 cycles
LLC RQ	ACCESS:     984291	FORWARD:          0	MERGED:          0	TO_CACHE:     984291
LLC WQ	ACCESS:     447240	FORWARD:          0	MERGED:          0	TO_CACHE:     447240
LLC PQ	ACCESS:     659815	FORWARD:          0	MERGED:          0	TO_CACHE:     659815

LLC Dense regions hint to LLC: 0

RAW hits: 834344
Loads Generated: 14875435
Loads sent to L1D: 14041091
Stores Generated: 8476009
Stores sent to L1D: 8476021
Major fault: 0 Minor fault: 33441
Allocated PAGES: 33441

stream: 
stream:times selected: 4301068
stream:pref_filled: 776168
stream:pref_useful: 142353
stream:pref_late: 16253
stream:misses: 20964
stream:misses_by_poll: 0

CS: 
CS:times selected: 56602
CS:pref_filled: 21336
CS:pref_useful: 4480
CS:pref_late: 320
CS:misses: 575
CS:misses_by_poll: 0

CPLX: 
CPLX:times selected: 4260563
CPLX:pref_filled: 235042
CPLX:pref_useful: 10400
CPLX:pref_late: 1326
CPLX:misses: 66276
CPLX:misses_by_poll: 138

ISB: 
ISB:times selected:4027120
ISB:pref_filled: 457227
ISB:pref_useful: 198178
ISB:pref_late: 13590
ISB:misses: 493663
ISB:misses_by_poll: 812

NL_L1: 
NL:times selected: 17448
NL:pref_filled: 4865
NL:pref_useful: 716
NL:pref_late: 97
NL:misses: 3172
NL:misses_by_poll: 0

total selections: 12662801
total_filled: 804961
total_useful: 200698
total_late: 33290
total_polluted: 950
total_misses_after_warmup: 940817
conflicts: 4579968

test: 2671483

DRAM Statistics
 CHANNEL 0
 RQ ROW_BUFFER_HIT:     142070  ROW_BUFFER_MISS:    1158233
 DBUS_CONGESTED:        641
 WQ ROW_BUFFER_HIT:     126598  ROW_BUFFER_MISS:     256901  FULL:          0

 AVG_CONGESTED_CYCLE: 4
 All warmup complete: 2
Channel 0 Bank busy for read cycles: 0
Channel 0 Bank busy for write cycles: 0
Channel 0
Rank 0
0banks busy for read cycles: 56015976
0banks busy for write cycles: 127188
1banks busy for read cycles: 57594429
1banks busy for write cycles: 19900489
2banks busy for read cycles: 28106645
2banks busy for write cycles: 10758306
3banks busy for read cycles: 11927418
3banks busy for write cycles: 5916566
4banks busy for read cycles: 4628610
4banks busy for write cycles: 3266167
5banks busy for read cycles: 1731284
5banks busy for write cycles: 1736009
6banks busy for read cycles: 512968
6banks busy for write cycles: 859914
7banks busy for read cycles: 117061
7banks busy for write cycles: 416549
8banks busy for read cycles: 22990
8banks busy for write cycles: 181413

CPU 0 Branch Prediction Accuracy: 94.0755% MPKI: 14.2353 Average ROB Occupancy at Mispredict: 26.2312
Branch types
NOT_BRANCH: 37985796 75.9716%
BRANCH_DIRECT_JUMP: 964405 1.92881%
BRANCH_INDIRECT: 140341 0.280682%
BRANCH_CONDITIONAL: 7911981 15.824%
BRANCH_DIRECT_CALL: 1294152 2.5883%
BRANCH_INDIRECT_CALL: 204449 0.408898%
BRANCH_RETURN: 1498606 2.99721%
BRANCH_OTHER: 0 0%

DRAM PAGES: 1048576
Allocated PAGES: 33441
