
*** ChampSim Multicore Out-of-Order Simulator ***

Warmup Instructions: 50000000
Simulation Instructions: 50000000
Number of CPUs: 1
LLC sets: 2048
LLC ways: 16
Off-chip DRAM Size: 4096 MB Channels: 1 Width: 64-bit Data Rate: 6400 MT/s
CPU 0 runs traces/SPEC-CPU2017/471.omnetpp-188B.champsimtrace.xz
.xz
CPU 0 Bimodal branch predictor
BTB has LRU replacement policy
ITLB has LRU replacement policy
DTLB has LRU replacement policy
STLB has LRU replacement policy
L1I has LRU replacement policy
L1D has LRU replacement policy
L2C has LRU replacement policy
LLC has LRU replacement policy
Heartbeat CPU 0 instructions: 10000001 cycles: 3263070 heartbeat IPC: 3.0646 cumulative IPC: 3.0646 (Simulation time: 0 hr 1 min 3 sec) 
Heartbeat CPU 0 instructions: 20000000 cycles: 6484981 heartbeat IPC: 3.10375 cumulative IPC: 3.08405 (Simulation time: 0 hr 2 min 4 sec) 
Heartbeat CPU 0 instructions: 30000000 cycles: 9729696 heartbeat IPC: 3.08193 cumulative IPC: 3.08334 (Simulation time: 0 hr 3 min 7 sec) 
Heartbeat CPU 0 instructions: 40000000 cycles: 12964982 heartbeat IPC: 3.09092 cumulative IPC: 3.08523 (Simulation time: 0 hr 4 min 10 sec) 
Heartbeat CPU 0 instructions: 50000003 cycles: 16187601 heartbeat IPC: 3.10307 cumulative IPC: 3.08878 (Simulation time: 0 hr 5 min 11 sec) 

Warmup complete CPU 0 instructions: 50000003 cycles: 16187601 (Simulation time: 0 hr 5 min 11 sec) 

Heartbeat CPU 0 instructions: 60000000 cycles: 51845668 heartbeat IPC: 0.280441 cumulative IPC: 0.280441 (Simulation time: 0 hr 6 min 13 sec) 
Heartbeat CPU 0 instructions: 70000001 cycles: 86368958 heartbeat IPC: 0.28966 cumulative IPC: 0.284976 (Simulation time: 0 hr 7 min 16 sec) 
Heartbeat CPU 0 instructions: 80000000 cycles: 121276313 heartbeat IPC: 0.286473 cumulative IPC: 0.285473 (Simulation time: 0 hr 8 min 22 sec) 
Heartbeat CPU 0 instructions: 90000003 cycles: 156124439 heartbeat IPC: 0.28696 cumulative IPC: 0.285843 (Simulation time: 0 hr 9 min 26 sec) 
Heartbeat CPU 0 instructions: 100000000 cycles: 191306998 heartbeat IPC: 0.284232 cumulative IPC: 0.285519 (Simulation time: 0 hr 10 min 33 sec) 
Finished CPU 0 instructions: 50000000 cycles: 175119406 cumulative IPC: 0.285519 (Simulation time: 0 hr 10 min 33 sec) 

ChampSim completed all CPUs

Region of Interest Statistics

CPU 0 cumulative IPC: 0.285519 instructions: 50000000 cycles: 175119406
ITLB TOTAL     ACCESS:    8716718  HIT:    8699515  MISS:      17203  HIT %:    99.8026  MISS %:   0.197356   MPKI: 0.34406
ITLB LOAD TRANSLATION ACCESS:    8716718  HIT:    8699515  MISS:      17203  HIT %:    99.8026  MISS %:   0.197356   MPKI: 0.34406
ITLB PREFETCH  REQUESTED:          0  ISSUED:          0  USEFUL:          0  USELESS:          0
ITLB USEFUL LOAD PREFETCHES:          0 PREFETCH ISSUED TO LOWER LEVEL:          0  ACCURACY: -nan
ITLB TIMELY PREFETCHES:          0 LATE PREFETCHES: 0 DROPPED PREFETCHES: 0
ITLB PREFETCHES SAME FILL-ORIGIN LEVEL: 0 DIFFERENT FILL-ORIGIN LEVEL: 0
ITLB AVERAGE MISS LATENCY: 11.9924 cycles
ITLB RQ	ACCESS:    9805529	FORWARD:          0	MERGED:    1081194	TO_CACHE:    8724335

DTLB TOTAL     ACCESS:   14689764  HIT:   13732044  MISS:     957720  HIT %:    93.4804  MISS %:    6.51964   MPKI: 19.1544
DTLB LOAD TRANSLATION ACCESS:   14689764  HIT:   13732044  MISS:     957720  HIT %:    93.4804  MISS %:    6.51964   MPKI: 19.1544
DTLB PREFETCH  REQUESTED:          0  ISSUED:          0  USEFUL:          0  USELESS:          0
DTLB USEFUL LOAD PREFETCHES:          0 PREFETCH ISSUED TO LOWER LEVEL:          0  ACCURACY: -nan
DTLB TIMELY PREFETCHES:          0 LATE PREFETCHES: 0 DROPPED PREFETCHES: 0
DTLB PREFETCHES SAME FILL-ORIGIN LEVEL: 0 DIFFERENT FILL-ORIGIN LEVEL: 0
DTLB AVERAGE MISS LATENCY: 16.9993 cycles
DTLB RQ	ACCESS:   17850924	FORWARD:          0	MERGED:    3116361	TO_CACHE:   14734563

STLB TOTAL     ACCESS:    2146917  HIT:    1786721  MISS:     360196  HIT %:    83.2226  MISS %:    16.7774   MPKI: 7.20392
STLB LOAD TRANSLATION ACCESS:     974923  HIT:     867498  MISS:     107425  HIT %:    88.9812  MISS %:    11.0188   MPKI: 2.1485
STLB TRANSLATION FROM L1D PREFETCHER ACCESS:    1171994  HIT:     919223  MISS:     252771  HIT %:    78.4324  MISS %:    21.5676   MPKI: 5.05542
STLB PREFETCH  REQUESTED:          0  ISSUED:          0  USEFUL:     158822  USELESS:      93709
STLB USEFUL LOAD PREFETCHES:     158822 PREFETCH ISSUED TO LOWER LEVEL:          0  ACCURACY: inf
STLB TIMELY PREFETCHES:     158822 LATE PREFETCHES: 525 DROPPED PREFETCHES: 0
STLB PREFETCHES SAME FILL-ORIGIN LEVEL: 0 DIFFERENT FILL-ORIGIN LEVEL: 0
STLB AVERAGE MISS LATENCY: 106.289 cycles
STLB RQ	ACCESS:    2283180	FORWARD:          0	MERGED:     134471	TO_CACHE:    2148709

STLB Hit, L1D data hit: 0
STLB Hit, L2C data hit: 0
STLB Hit, LLC data hit: 0
STLB Hit, LLC data miss: 0
STLB STLB hints to L2: 0
L1D TOTAL     ACCESS:   18656674  HIT:   16810214  MISS:    1846460  HIT %:     90.103  MISS %:    9.89705   MPKI: 36.9292
L1D LOAD      ACCESS:    9497522  HIT:    8878194  MISS:     619328  HIT %:    93.4791  MISS %:    6.52094   MPKI: 12.3866
L1D RFO       ACCESS:    7900531  HIT:    7744349  MISS:     156182  HIT %:    98.0231  MISS %:    1.97685   MPKI: 3.12364
L1D PREFETCH  ACCESS:    1258621  HIT:     187671  MISS:    1070950  HIT %:    14.9108  MISS %:    85.0892   MPKI: 21.419
AGUS PREFETCH L1 MISS: 0
L1D PREFETCH  REQUESTED:    2696373  ISSUED:    2616590  USEFUL:     437331  USELESS:     633737
L1D USEFUL LOAD PREFETCHES:     437331 PREFETCH ISSUED TO LOWER LEVEL:    1082936  ACCURACY: 40.3838
L1D TIMELY PREFETCHES:     437331 LATE PREFETCHES: 11332 DROPPED PREFETCHES: 0
L1D PREFETCHES SAME FILL-ORIGIN LEVEL: 1082936 DIFFERENT FILL-ORIGIN LEVEL: 0
L1D AVERAGE MISS LATENCY: 154.448 cycles
L1D RQ	ACCESS:   14079011	FORWARD:          0	MERGED:    4057075	TO_CACHE:    9569091
L1D WQ	ACCESS:    8476021	FORWARD:     452921	MERGED:     194188	TO_CACHE:    8281833
L1D PQ	ACCESS:    1308333	FORWARD:          0	MERGED:          0	TO_CACHE:    1308257

L1D UNIQUE REGIONS ACCESSED: 0
L1D REGIONS CONFLICTS: 0
L1D Cross Page Prefetch Requests: 1439538
L1D Same Page Prefetch Requests: 1018111
L1D ROI Sum of L1D PQ occupancy: 65545631
L1D PREFETCHES PUSHED FROM L2C: 0
L1I TOTAL     ACCESS:    9805231  HIT:    9803690  MISS:       1541  HIT %:    99.9843  MISS %:  0.0157161   MPKI: 0.03082
L1I LOAD      ACCESS:    9805231  HIT:    9803690  MISS:       1541  HIT %:    99.9843  MISS %:  0.0157161   MPKI: 0.03082
L1I PREFETCH  REQUESTED:          0  ISSUED:          0  USEFUL:          0  USELESS:          0
L1I USEFUL LOAD PREFETCHES:          0 PREFETCH ISSUED TO LOWER LEVEL:          0  ACCURACY: -nan
L1I TIMELY PREFETCHES:          0 LATE PREFETCHES: 0 DROPPED PREFETCHES: 0
L1I PREFETCHES SAME FILL-ORIGIN LEVEL: 0 DIFFERENT FILL-ORIGIN LEVEL: 0
L1I AVERAGE MISS LATENCY: 158.202 cycles
L1I RQ	ACCESS:   14760009	FORWARD:          0	MERGED:    4954480	TO_CACHE:    9805529

BTB TOTAL     ACCESS:   10008119  HIT:    9487971  MISS:     520148  HIT %:    94.8027  MISS %:    5.19726   MPKI: 10.403
BTB BRANCH_DIRECT_JUMP	ACCESS:     964405  HIT:     964243  MISS:        162
BTB BRANCH_INDIRECT	ACCESS:     140341  HIT:     116325  MISS:      24016
BTB BRANCH_CONDITIONAL	ACCESS:    5906166  HIT:    5905777  MISS:        389
BTB BRANCH_DIRECT_CALL	ACCESS:    1294152  HIT:    1293861  MISS:        291
BTB BRANCH_INDIRECT_CALL	ACCESS:     204449  HIT:     203146  MISS:       1303
BTB BRANCH_RETURN	ACCESS:    1498606  HIT:    1004619  MISS:     493987
BTB BRANCH_OTHER ACCESS:          0  HIT:          0  MISS:          0

L2C TOTAL     ACCESS:    2750677  HIT:    1180050  MISS:    1570627  HIT %:    42.9003  MISS %:    57.0997   MPKI: 31.4125
L2C LOAD      ACCESS:     609511  HIT:     181438  MISS:     428073  HIT %:    29.7678  MISS %:    70.2322   MPKI: 8.56146
L2C DATA LOAD MPKI: 8.53452
L2C INSTRUCTION LOAD MPKI: 0.02694
L2C RFO       ACCESS:     155526  HIT:      14319  MISS:     141207  HIT %:    9.20682  MISS %:    90.7932   MPKI: 2.82414
L2C PREFETCH  ACCESS:    1082923  HIT:     224675  MISS:     858248  HIT %:    20.7471  MISS %:    79.2529   MPKI: 17.165
AGUS PREFETCH L1 MISS: 0
L2C DATA PREFETCH MPKI: 17.165
L2C INSTRUCTION PREFETCH MPKI: 0
L2C WRITEBACK ACCESS:     506789  HIT:     505234  MISS:       1555  HIT %:    99.6932  MISS %:   0.306834   MPKI: 0.0311
L2C LOAD TRANSLATION ACCESS:     116325  HIT:      79506  MISS:      36819  HIT %:    68.3482  MISS %:    31.6518   MPKI: 0.73638
L2C TRANSLATION FROM L1D PREFETCHER ACCESS:     279603  HIT:     174878  MISS:     104725  HIT %:    62.5451  MISS %:    37.4549   MPKI: 2.0945
L2C PREFETCH  REQUESTED:          0  ISSUED:          0  USEFUL:     136145  USELESS:     827010
L2C USEFUL LOAD PREFETCHES:     136145 PREFETCH ISSUED TO LOWER LEVEL:     858248  ACCURACY: 15.8631
L2C TIMELY PREFETCHES:     136145 LATE PREFETCHES: 0 DROPPED PREFETCHES: 0
L2C PREFETCHES SAME FILL-ORIGIN LEVEL: 0 DIFFERENT FILL-ORIGIN LEVEL: 0
L2C AVERAGE MISS LATENCY: 171.121 cycles
L2C RQ	ACCESS:    1160993	FORWARD:          0	MERGED:          0	TO_CACHE:    1160965
L2C WQ	ACCESS:     506789	FORWARD:         41	MERGED:          0	TO_CACHE:     506789
L2C PQ	ACCESS:    1082936	FORWARD:          0	MERGED:          0	TO_CACHE:    1082923

L2C Instructions Evicting Data 1236
L2C Translations Evicting Data 128136
L2C Data Evicting Data 1296339
L2C Instructions Evicting Instructions 7
L2C Translations Evicting Instructions 127
L2C Data Evicting Instructions 1212
L2C Instructions Evicting Translations 104
L2C Translations Evicting Translations 13281
L2C Data Evicting Translations 128630
L2C Dense regions hint from L2: 0
PSCL5 TOTAL     ACCESS:     360196  HIT:     360196  MISS:          0  HIT %:        100  MISS %:          0   MPKI: 0
PSCL5 LOAD TRANSLATION ACCESS:     106900  HIT:     106900  MISS:          0  HIT %:        100  MISS %:          0   MPKI: 0
PSCL5 TRANSLATION FROM L1D PREFETCHER ACCESS:     253296  HIT:     253296  MISS:          0  HIT %:        100  MISS %:          0   MPKI: 0
PSCL5 PREFETCH  REQUESTED:          0  ISSUED:          0  USEFUL:          0  USELESS:          0
PSCL5 USEFUL LOAD PREFETCHES:          0 PREFETCH ISSUED TO LOWER LEVEL:          0  ACCURACY: -nan
PSCL5 TIMELY PREFETCHES:          0 LATE PREFETCHES: 0 DROPPED PREFETCHES: 0
PSCL5 PREFETCHES SAME FILL-ORIGIN LEVEL: 0 DIFFERENT FILL-ORIGIN LEVEL: 0

PSCL4 TOTAL     ACCESS:     360196  HIT:     360196  MISS:          0  HIT %:        100  MISS %:          0   MPKI: 0
PSCL4 LOAD TRANSLATION ACCESS:     106900  HIT:     106900  MISS:          0  HIT %:        100  MISS %:          0   MPKI: 0
PSCL4 TRANSLATION FROM L1D PREFETCHER ACCESS:     253296  HIT:     253296  MISS:          0  HIT %:        100  MISS %:          0   MPKI: 0
PSCL4 PREFETCH  REQUESTED:          0  ISSUED:          0  USEFUL:          0  USELESS:          0
PSCL4 USEFUL LOAD PREFETCHES:          0 PREFETCH ISSUED TO LOWER LEVEL:          0  ACCURACY: -nan
PSCL4 TIMELY PREFETCHES:          0 LATE PREFETCHES: 0 DROPPED PREFETCHES: 0
PSCL4 PREFETCHES SAME FILL-ORIGIN LEVEL: 0 DIFFERENT FILL-ORIGIN LEVEL: 0

PSCL3 TOTAL     ACCESS:     360196  HIT:     360196  MISS:          0  HIT %:        100  MISS %:          0   MPKI: 0
PSCL3 LOAD TRANSLATION ACCESS:     106900  HIT:     106900  MISS:          0  HIT %:        100  MISS %:          0   MPKI: 0
PSCL3 TRANSLATION FROM L1D PREFETCHER ACCESS:     253296  HIT:     253296  MISS:          0  HIT %:        100  MISS %:          0   MPKI: 0
PSCL3 PREFETCH  REQUESTED:          0  ISSUED:          0  USEFUL:          0  USELESS:          0
PSCL3 USEFUL LOAD PREFETCHES:          0 PREFETCH ISSUED TO LOWER LEVEL:          0  ACCURACY: -nan
PSCL3 TIMELY PREFETCHES:          0 LATE PREFETCHES: 0 DROPPED PREFETCHES: 0
PSCL3 PREFETCHES SAME FILL-ORIGIN LEVEL: 0 DIFFERENT FILL-ORIGIN LEVEL: 0

PSCL2 TOTAL     ACCESS:     360196  HIT:     324463  MISS:      35733  HIT %:    90.0796  MISS %:    9.92043   MPKI: 0.71466
PSCL2 LOAD TRANSLATION ACCESS:     133207  HIT:      97474  MISS:      35733  HIT %:    73.1748  MISS %:    26.8252   MPKI: 0.71466
PSCL2 TRANSLATION FROM L1D PREFETCHER ACCESS:     226989  HIT:     226989  MISS:          0  HIT %:        100  MISS %:          0   MPKI: 0
PSCL2 PREFETCH  REQUESTED:          0  ISSUED:          0  USEFUL:          0  USELESS:          0
PSCL2 USEFUL LOAD PREFETCHES:          0 PREFETCH ISSUED TO LOWER LEVEL:          0  ACCURACY: -nan
PSCL2 TIMELY PREFETCHES:          0 LATE PREFETCHES: 0 DROPPED PREFETCHES: 0
PSCL2 PREFETCHES SAME FILL-ORIGIN LEVEL: 0 DIFFERENT FILL-ORIGIN LEVEL: 0

LLC TOTAL     ACCESS:    2016501  HIT:     841281  MISS:    1175220  HIT %:    41.7198  MISS %:    58.2802   MPKI: 23.5044
LLC LOAD      ACCESS:     428073  HIT:      91525  MISS:     336548  HIT %:    21.3807  MISS %:    78.6193   MPKI: 6.73096
LLC RFO       ACCESS:     141207  HIT:      19959  MISS:     121248  HIT %:    14.1346  MISS %:    85.8654   MPKI: 2.42496
LLC PREFETCH  ACCESS:     858248  HIT:     179707  MISS:     678541  HIT %:    20.9388  MISS %:    79.0612   MPKI: 13.5708
AGUS PREFETCH L1 MISS: 0
LLC WRITEBACK ACCESS:     447429  HIT:     446326  MISS:       1103  HIT %:    99.7535  MISS %:    0.24652   MPKI: 0.02206
LLC LOAD TRANSLATION ACCESS:      36819  HIT:      28876  MISS:       7943  HIT %:    78.4269  MISS %:    21.5731   MPKI: 0.15886
LLC TRANSLATION FROM L1D PREFETCHER ACCESS:     104725  HIT:      74888  MISS:      29837  HIT %:    71.5092  MISS %:    28.4908   MPKI: 0.59674
LLC PREFETCH  REQUESTED:          0  ISSUED:          0  USEFUL:      49920  USELESS:     657416
LLC USEFUL LOAD PREFETCHES:      49920 PREFETCH ISSUED TO LOWER LEVEL:     678541  ACCURACY: 7.35696
LLC TIMELY PREFETCHES:      49920 LATE PREFETCHES: 0 DROPPED PREFETCHES: 0
LLC PREFETCHES SAME FILL-ORIGIN LEVEL: 0 DIFFERENT FILL-ORIGIN LEVEL: 0
LLC AVERAGE MISS LATENCY: 188.569 cycles
LLC RQ	ACCESS:     710824	FORWARD:          0	MERGED:          0	TO_CACHE:     710824
LLC WQ	ACCESS:     447429	FORWARD:          0	MERGED:          0	TO_CACHE:     447429
LLC PQ	ACCESS:     858248	FORWARD:          0	MERGED:          0	TO_CACHE:     858248

LLC Dense regions hint to LLC: 0

RAW hits: 796424
Loads Generated: 14875435
Loads sent to L1D: 14079011
Stores Generated: 8476009
Stores sent to L1D: 8476021
Major fault: 0 Minor fault: 33441
Allocated PAGES: 33441

stream: 
stream:times selected: 1009058
stream:pref_reqs: 980430
stream:pref_reqs_filtered_out: 32902
stream:pref_filled: 613211
stream:pref_useful: 101435
stream:pref_late: 12377
stream:misses: 96102
stream:misses_by_poll: 0

CS: 
CS:times selected: 19294
CS:pref_reqs: 19980
CS:pref_reqs_filtered_out: 4892
CS:pref_filled: 9406
CS:pref_useful: 1406
CS:pref_late: 86
CS:misses: 2306
CS:misses_by_poll: 4

CPLX: 
CPLX:times selected: 998569
CPLX:pref_reqs: 30203
CPLX:pref_reqs_filtered_out: 5210
CPLX:pref_filled: 22482
CPLX:pref_useful: 2099
CPLX:pref_late: 72
CPLX:misses: 294474
CPLX:misses_by_poll: 1

ISB: 
ISB: pref operate called:18154152
ISB: load ip seen:18154152
ISB: cache miss:1444377
ISB: second time ip:1056033
ISB: current addr not equals last addr:1030084
ISB: non zero stride:1009062
ISB: access training unit:1008511
ISB: end_c:1003689
ISB:total access:1030084
ISB:times selected:601778
ISB:canary counter:601778
ISB:pref_reqs: 1754968
ISB:pref_reqs_filtered_out: 92849
ISB:pref_filled: 1320082
ISB:pref_useful: 646823
ISB:pref_late: 7732
ISB:misses: 569579
ISB:misses_by_poll: 6582
ISB:Stream end: 392124
ISB:No Prediction: 407284 39.5389
ISB:No translation: 397839129 38622
ISB:Predictions: 1490374 144.685

NL_L1: 
NL:times selected: 5963
NL:pref_reqs: 5963
NL:pref_reqs_filtered_out: 406
NL:pref_filled: 3844
NL:pref_useful: 786
NL:pref_late: 90
NL:misses: 5959
NL:misses_by_poll: 0

total selections: 2634662
total_filled: 1070950
total_useful: 437331
total_late: 21519
total_polluted: 6587
total_misses_after_warmup: 690897
conflicts: 132842

test: 704451

DRAM Statistics
 CHANNEL 0
 RQ ROW_BUFFER_HIT:     126513  ROW_BUFFER_MISS:    1047586
 DBUS_CONGESTED:        228
 WQ ROW_BUFFER_HIT:      61445  ROW_BUFFER_MISS:     315942  FULL:          0

 AVG_CONGESTED_CYCLE: 4
 All warmup complete: 2
Channel 0 Bank busy for read cycles: 0
Channel 0 Bank busy for write cycles: 0
Channel 0
Rank 0
0banks busy for read cycles: 64871918
0banks busy for write cycles: 112933
1banks busy for read cycles: 34519137
1banks busy for write cycles: 14221055
2banks busy for read cycles: 20629313
2banks busy for write cycles: 7526122
3banks busy for read cycles: 10155691
3banks busy for write cycles: 4533136
4banks busy for read cycles: 6230930
4banks busy for write cycles: 2862097
5banks busy for read cycles: 3753113
5banks busy for write cycles: 1731180
6banks busy for read cycles: 1627531
6banks busy for write cycles: 1014039
7banks busy for read cycles: 454133
7banks busy for write cycles: 542611
8banks busy for read cycles: 73653
8banks busy for write cycles: 260815

CPU 0 Branch Prediction Accuracy: 94.0755% MPKI: 14.2353 Average ROB Occupancy at Mispredict: 25.5795
Branch types
NOT_BRANCH: 37985796 75.9716%
BRANCH_DIRECT_JUMP: 964405 1.92881%
BRANCH_INDIRECT: 140341 0.280682%
BRANCH_CONDITIONAL: 7911981 15.824%
BRANCH_DIRECT_CALL: 1294152 2.5883%
BRANCH_INDIRECT_CALL: 204449 0.408898%
BRANCH_RETURN: 1498606 2.99721%
BRANCH_OTHER: 0 0%

DRAM PAGES: 1048576
Allocated PAGES: 33441
