
*** ChampSim Multicore Out-of-Order Simulator ***

Warmup Instructions: 50000000
Simulation Instructions: 50000000
Number of CPUs: 1
LLC sets: 2048
LLC ways: 16
Off-chip DRAM Size: 4096 MB Channels: 1 Width: 64-bit Data Rate: 6400 MT/s
CPU 0 runs traces/SPEC-CPU2017/471.omnetpp-188B.champsimtrace.xz
.xz
CPU 0 Bimodal branch predictor
BTB has LRU replacement policy
ITLB has LRU replacement policy
DTLB has LRU replacement policy
STLB has LRU replacement policy
L1I has LRU replacement policy
Ideal ISB Prefetching
L1D has LRU replacement policy
L2C has LRU replacement policy
LLC has LRU replacement policy
Heartbeat CPU 0 instructions: 10000001 cycles: 3281149 heartbeat IPC: 3.04771 cumulative IPC: 3.04771 (Simulation time: 0 hr 0 min 42 sec) 
Heartbeat CPU 0 instructions: 20000000 cycles: 6522828 heartbeat IPC: 3.08482 cumulative IPC: 3.06615 (Simulation time: 0 hr 1 min 25 sec) 
Heartbeat CPU 0 instructions: 30000000 cycles: 9785999 heartbeat IPC: 3.0645 cumulative IPC: 3.0656 (Simulation time: 0 hr 2 min 9 sec) 
Heartbeat CPU 0 instructions: 40000000 cycles: 13048546 heartbeat IPC: 3.06509 cumulative IPC: 3.06548 (Simulation time: 0 hr 2 min 53 sec) 
Heartbeat CPU 0 instructions: 50000003 cycles: 16291369 heartbeat IPC: 3.08373 cumulative IPC: 3.06911 (Simulation time: 0 hr 3 min 38 sec) 

Warmup complete CPU 0 instructions: 50000003 cycles: 16291369 (Simulation time: 0 hr 3 min 38 sec) 

Heartbeat CPU 0 instructions: 60000000 cycles: 50615545 heartbeat IPC: 0.29134 cumulative IPC: 0.29134 (Simulation time: 0 hr 4 min 37 sec) 
Heartbeat CPU 0 instructions: 70000001 cycles: 82959212 heartbeat IPC: 0.30918 cumulative IPC: 0.299995 (Simulation time: 0 hr 5 min 36 sec) 
Heartbeat CPU 0 instructions: 80000000 cycles: 114917623 heartbeat IPC: 0.312907 cumulative IPC: 0.304179 (Simulation time: 0 hr 6 min 37 sec) 
Heartbeat CPU 0 instructions: 90000003 cycles: 146564570 heartbeat IPC: 0.315986 cumulative IPC: 0.307047 (Simulation time: 0 hr 7 min 38 sec) 
Heartbeat CPU 0 instructions: 100000000 cycles: 178683178 heartbeat IPC: 0.311346 cumulative IPC: 0.307897 (Simulation time: 0 hr 8 min 39 sec) 
Finished CPU 0 instructions: 50000000 cycles: 162391818 cumulative IPC: 0.307897 (Simulation time: 0 hr 8 min 39 sec) 

ChampSim completed all CPUs

Region of Interest Statistics

CPU 0 cumulative IPC: 0.307897 instructions: 50000000 cycles: 162391818
ITLB TOTAL     ACCESS:    8715568  HIT:    8698365  MISS:      17203  HIT %:    99.8026  MISS %:   0.197382   MPKI: 0.34406
ITLB LOAD TRANSLATION ACCESS:    8715568  HIT:    8698365  MISS:      17203  HIT %:    99.8026  MISS %:   0.197382   MPKI: 0.34406
ITLB PREFETCH  REQUESTED:          0  ISSUED:          0  USEFUL:          0  USELESS:          0
ITLB USEFUL LOAD PREFETCHES:          0 PREFETCH ISSUED TO LOWER LEVEL:          0  ACCURACY: -nan
ITLB TIMELY PREFETCHES:          0 LATE PREFETCHES: 0 DROPPED PREFETCHES: 0
ITLB PREFETCHES SAME FILL-ORIGIN LEVEL: 0 DIFFERENT FILL-ORIGIN LEVEL: 0
ITLB AVERAGE MISS LATENCY: 15.4453 cycles
ITLB RQ	ACCESS:    9803969	FORWARD:          0	MERGED:    1080780	TO_CACHE:    8723189

DTLB TOTAL     ACCESS:   14722371  HIT:   13764647  MISS:     957724  HIT %:    93.4948  MISS %:    6.50523   MPKI: 19.1545
DTLB LOAD TRANSLATION ACCESS:   14722371  HIT:   13764647  MISS:     957724  HIT %:    93.4948  MISS %:    6.50523   MPKI: 19.1545
DTLB PREFETCH  REQUESTED:          0  ISSUED:          0  USEFUL:          0  USELESS:          0
DTLB USEFUL LOAD PREFETCHES:          0 PREFETCH ISSUED TO LOWER LEVEL:          0  ACCURACY: -nan
DTLB TIMELY PREFETCHES:          0 LATE PREFETCHES: 0 DROPPED PREFETCHES: 0
DTLB PREFETCHES SAME FILL-ORIGIN LEVEL: 0 DIFFERENT FILL-ORIGIN LEVEL: 0
DTLB AVERAGE MISS LATENCY: 17.8063 cycles
DTLB RQ	ACCESS:   17877561	FORWARD:          0	MERGED:    3109923	TO_CACHE:   14767638

STLB TOTAL     ACCESS:    3339582  HIT:    2315443  MISS:    1024139  HIT %:    69.3333  MISS %:    30.6667   MPKI: 20.4828
STLB LOAD TRANSLATION ACCESS:     974927  HIT:     862966  MISS:     111961  HIT %:     88.516  MISS %:     11.484   MPKI: 2.23922
STLB TRANSLATION FROM L1D PREFETCHER ACCESS:    2364655  HIT:    1452477  MISS:     912178  HIT %:    61.4245  MISS %:    38.5755   MPKI: 18.2436
STLB PREFETCH  REQUESTED:          0  ISSUED:          0  USEFUL:     355472  USELESS:     556365
STLB USEFUL LOAD PREFETCHES:     355472 PREFETCH ISSUED TO LOWER LEVEL:          0  ACCURACY: inf
STLB TIMELY PREFETCHES:     355472 LATE PREFETCHES: 659 DROPPED PREFETCHES: 0
STLB PREFETCHES SAME FILL-ORIGIN LEVEL: 0 DIFFERENT FILL-ORIGIN LEVEL: 0
STLB AVERAGE MISS LATENCY: 110.146 cycles
STLB RQ	ACCESS:    3578823	FORWARD:          0	MERGED:     237091	TO_CACHE:    3341732

STLB Hit, L1D data hit: 0
STLB Hit, L2C data hit: 0
STLB Hit, LLC data hit: 0
STLB Hit, LLC data miss: 0
STLB STLB hints to L2: 0
L1D TOTAL     ACCESS:   20009015  HIT:   16962994  MISS:    3046021  HIT %:    84.7768  MISS %:    15.2232   MPKI: 60.9204
L1D LOAD      ACCESS:    9523931  HIT:    8909065  MISS:     614866  HIT %:     93.544  MISS %:    6.45601   MPKI: 12.2973
L1D RFO       ACCESS:    7911575  HIT:    7747415  MISS:     164160  HIT %:    97.9251  MISS %:    2.07493   MPKI: 3.2832
L1D PREFETCH  ACCESS:    2573509  HIT:     306514  MISS:    2266995  HIT %:    11.9104  MISS %:    88.0896   MPKI: 45.3399
AGUS PREFETCH L1 MISS: 0
L1D PREFETCH  REQUESTED:    6366538  ISSUED:    5217079  USEFUL:     501164  USELESS:    1765882
L1D USEFUL LOAD PREFETCHES:     501164 PREFETCH ISSUED TO LOWER LEVEL:    2273844  ACCURACY: 22.0404
L1D TIMELY PREFETCHES:     501164 LATE PREFETCHES: 6555 DROPPED PREFETCHES: 0
L1D PREFETCHES SAME FILL-ORIGIN LEVEL: 2273844 DIFFERENT FILL-ORIGIN LEVEL: 0
L1D AVERAGE MISS LATENCY: 135.262 cycles
L1D RQ	ACCESS:   14108801	FORWARD:          0	MERGED:    4061385	TO_CACHE:    9581991
L1D WQ	ACCESS:    8476021	FORWARD:     465441	MERGED:     180451	TO_CACHE:    8295570
L1D PQ	ACCESS:    2613183	FORWARD:          0	MERGED:       9271	TO_CACHE:    2603896

L1D UNIQUE REGIONS ACCESSED: 0
L1D REGIONS CONFLICTS: 0
L1D Cross Page Prefetch Requests: 4060255
L1D Same Page Prefetch Requests: 124460
L1D ROI Sum of L1D PQ occupancy: 184687805
L1D PREFETCHES PUSHED FROM L2C: 0
L1I TOTAL     ACCESS:    9803666  HIT:    9802125  MISS:       1541  HIT %:    99.9843  MISS %:  0.0157186   MPKI: 0.03082
L1I LOAD      ACCESS:    9803666  HIT:    9802125  MISS:       1541  HIT %:    99.9843  MISS %:  0.0157186   MPKI: 0.03082
L1I PREFETCH  REQUESTED:          0  ISSUED:          0  USEFUL:          0  USELESS:          0
L1I USEFUL LOAD PREFETCHES:          0 PREFETCH ISSUED TO LOWER LEVEL:          0  ACCURACY: -nan
L1I TIMELY PREFETCHES:          0 LATE PREFETCHES: 0 DROPPED PREFETCHES: 0
L1I PREFETCHES SAME FILL-ORIGIN LEVEL: 0 DIFFERENT FILL-ORIGIN LEVEL: 0
L1I AVERAGE MISS LATENCY: 170.154 cycles
L1I RQ	ACCESS:   14756974	FORWARD:          0	MERGED:    4953005	TO_CACHE:    9803969

BTB TOTAL     ACCESS:   10008119  HIT:    9487971  MISS:     520148  HIT %:    94.8027  MISS %:    5.19726   MPKI: 10.403
BTB BRANCH_DIRECT_JUMP	ACCESS:     964405  HIT:     964243  MISS:        162
BTB BRANCH_INDIRECT	ACCESS:     140341  HIT:     116325  MISS:      24016
BTB BRANCH_CONDITIONAL	ACCESS:    5906166  HIT:    5905777  MISS:        389
BTB BRANCH_DIRECT_CALL	ACCESS:    1294152  HIT:    1293861  MISS:        291
BTB BRANCH_INDIRECT_CALL	ACCESS:     204449  HIT:     203146  MISS:       1303
BTB BRANCH_RETURN	ACCESS:    1498606  HIT:    1004619  MISS:     493987
BTB BRANCH_OTHER ACCESS:          0  HIT:          0  MISS:          0

L2C TOTAL     ACCESS:    4742294  HIT:    2442867  MISS:    2299427  HIT %:    51.5123  MISS %:    48.4877   MPKI: 45.9885
L2C LOAD      ACCESS:     609765  HIT:     290073  MISS:     319692  HIT %:    47.5713  MISS %:    52.4287   MPKI: 6.39384
L2C DATA LOAD MPKI: 6.36574
L2C INSTRUCTION LOAD MPKI: 0.0281
L2C RFO       ACCESS:     163856  HIT:      22479  MISS:     141377  HIT %:    13.7188  MISS %:    86.2812   MPKI: 2.82754
L2C PREFETCH  ACCESS:    2273813  HIT:     720573  MISS:    1553240  HIT %:    31.6901  MISS %:    68.3099   MPKI: 31.0648
AGUS PREFETCH L1 MISS: 0
L2C DATA PREFETCH MPKI: 31.0648
L2C INSTRUCTION PREFETCH MPKI: 0
L2C WRITEBACK ACCESS:     531430  HIT:     529094  MISS:       2336  HIT %:    99.5604  MISS %:   0.439569   MPKI: 0.04672
L2C LOAD TRANSLATION ACCESS:     124444  HIT:     101147  MISS:      23297  HIT %:    81.2791  MISS %:    18.7209   MPKI: 0.46594
L2C TRANSLATION FROM L1D PREFETCHER ACCESS:    1038986  HIT:     779501  MISS:     259485  HIT %:    75.0252  MISS %:    24.9748   MPKI: 5.1897
L2C PREFETCH  REQUESTED:          0  ISSUED:          0  USEFUL:     309618  USELESS:    1503068
L2C USEFUL LOAD PREFETCHES:     309618 PREFETCH ISSUED TO LOWER LEVEL:    1553239  ACCURACY: 19.9337
L2C TIMELY PREFETCHES:     309618 LATE PREFETCHES: 0 DROPPED PREFETCHES: 0
L2C PREFETCHES SAME FILL-ORIGIN LEVEL: 0 DIFFERENT FILL-ORIGIN LEVEL: 0
L2C AVERAGE MISS LATENCY: 166.326 cycles
L2C RQ	ACCESS:    1937144	FORWARD:          0	MERGED:          0	TO_CACHE:    1937051
L2C WQ	ACCESS:     531430	FORWARD:        127	MERGED:          0	TO_CACHE:     531430
L2C PQ	ACCESS:    2273844	FORWARD:          0	MERGED:          0	TO_CACHE:    2273810

L2C Instructions Evicting Data 1236
L2C Translations Evicting Data 245334
L2C Data Evicting Data 1766499
L2C Instructions Evicting Instructions 8
L2C Translations Evicting Instructions 192
L2C Data Evicting Instructions 1205
L2C Instructions Evicting Translations 161
L2C Translations Evicting Translations 37256
L2C Data Evicting Translations 245200
L2C Dense regions hint from L2: 0
PSCL5 TOTAL     ACCESS:    1024138  HIT:    1024138  MISS:          0  HIT %:        100  MISS %:          0   MPKI: 0
PSCL5 LOAD TRANSLATION ACCESS:     111302  HIT:     111302  MISS:          0  HIT %:        100  MISS %:          0   MPKI: 0
PSCL5 TRANSLATION FROM L1D PREFETCHER ACCESS:     912836  HIT:     912836  MISS:          0  HIT %:        100  MISS %:          0   MPKI: 0
PSCL5 PREFETCH  REQUESTED:          0  ISSUED:          0  USEFUL:          0  USELESS:          0
PSCL5 USEFUL LOAD PREFETCHES:          0 PREFETCH ISSUED TO LOWER LEVEL:          0  ACCURACY: -nan
PSCL5 TIMELY PREFETCHES:          0 LATE PREFETCHES: 0 DROPPED PREFETCHES: 0
PSCL5 PREFETCHES SAME FILL-ORIGIN LEVEL: 0 DIFFERENT FILL-ORIGIN LEVEL: 0

PSCL4 TOTAL     ACCESS:    1024138  HIT:    1024138  MISS:          0  HIT %:        100  MISS %:          0   MPKI: 0
PSCL4 LOAD TRANSLATION ACCESS:     111302  HIT:     111302  MISS:          0  HIT %:        100  MISS %:          0   MPKI: 0
PSCL4 TRANSLATION FROM L1D PREFETCHER ACCESS:     912836  HIT:     912836  MISS:          0  HIT %:        100  MISS %:          0   MPKI: 0
PSCL4 PREFETCH  REQUESTED:          0  ISSUED:          0  USEFUL:          0  USELESS:          0
PSCL4 USEFUL LOAD PREFETCHES:          0 PREFETCH ISSUED TO LOWER LEVEL:          0  ACCURACY: -nan
PSCL4 TIMELY PREFETCHES:          0 LATE PREFETCHES: 0 DROPPED PREFETCHES: 0
PSCL4 PREFETCHES SAME FILL-ORIGIN LEVEL: 0 DIFFERENT FILL-ORIGIN LEVEL: 0

PSCL3 TOTAL     ACCESS:    1024138  HIT:    1024138  MISS:          0  HIT %:        100  MISS %:          0   MPKI: 0
PSCL3 LOAD TRANSLATION ACCESS:     111302  HIT:     111302  MISS:          0  HIT %:        100  MISS %:          0   MPKI: 0
PSCL3 TRANSLATION FROM L1D PREFETCHER ACCESS:     912836  HIT:     912836  MISS:          0  HIT %:        100  MISS %:          0   MPKI: 0
PSCL3 PREFETCH  REQUESTED:          0  ISSUED:          0  USEFUL:          0  USELESS:          0
PSCL3 USEFUL LOAD PREFETCHES:          0 PREFETCH ISSUED TO LOWER LEVEL:          0  ACCURACY: -nan
PSCL3 TIMELY PREFETCHES:          0 LATE PREFETCHES: 0 DROPPED PREFETCHES: 0
PSCL3 PREFETCHES SAME FILL-ORIGIN LEVEL: 0 DIFFERENT FILL-ORIGIN LEVEL: 0

PSCL2 TOTAL     ACCESS:    1024138  HIT:     884845  MISS:     139293  HIT %:     86.399  MISS %:     13.601   MPKI: 2.78586
PSCL2 LOAD TRANSLATION ACCESS:     237452  HIT:      98159  MISS:     139293  HIT %:    41.3385  MISS %:    58.6615   MPKI: 2.78586
PSCL2 TRANSLATION FROM L1D PREFETCHER ACCESS:     786686  HIT:     786686  MISS:          0  HIT %:        100  MISS %:          0   MPKI: 0
PSCL2 PREFETCH  REQUESTED:          0  ISSUED:          0  USEFUL:          0  USELESS:          0
PSCL2 USEFUL LOAD PREFETCHES:          0 PREFETCH ISSUED TO LOWER LEVEL:          0  ACCURACY: -nan
PSCL2 TIMELY PREFETCHES:          0 LATE PREFETCHES: 0 DROPPED PREFETCHES: 0
PSCL2 PREFETCHES SAME FILL-ORIGIN LEVEL: 0 DIFFERENT FILL-ORIGIN LEVEL: 0

LLC TOTAL     ACCESS:    2755531  HIT:    1256342  MISS:    1499189  HIT %:    45.5935  MISS %:    54.4065   MPKI: 29.9838
LLC LOAD      ACCESS:     319691  HIT:      94603  MISS:     225088  HIT %:     29.592  MISS %:     70.408   MPKI: 4.50176
LLC RFO       ACCESS:     141377  HIT:      25668  MISS:     115709  HIT %:    18.1557  MISS %:    81.8443   MPKI: 2.31418
LLC PREFETCH  ACCESS:    1553235  HIT:     441098  MISS:    1112137  HIT %:    28.3987  MISS %:    71.6013   MPKI: 22.2427
AGUS PREFETCH L1 MISS: 0
LLC WRITEBACK ACCESS:     458446  HIT:     457030  MISS:       1416  HIT %:    99.6911  MISS %:    0.30887   MPKI: 0.02832
LLC LOAD TRANSLATION ACCESS:      23297  HIT:      20390  MISS:       2907  HIT %:     87.522  MISS %:     12.478   MPKI: 0.05814
LLC TRANSLATION FROM L1D PREFETCHER ACCESS:     259485  HIT:     217553  MISS:      41932  HIT %:    83.8403  MISS %:    16.1597   MPKI: 0.83864
LLC PREFETCH  REQUESTED:          0  ISSUED:          0  USEFUL:      74161  USELESS:    1077798
LLC USEFUL LOAD PREFETCHES:      74161 PREFETCH ISSUED TO LOWER LEVEL:    1112137  ACCURACY: 6.66833
LLC TIMELY PREFETCHES:      74161 LATE PREFETCHES: 0 DROPPED PREFETCHES: 0
LLC PREFETCHES SAME FILL-ORIGIN LEVEL: 0 DIFFERENT FILL-ORIGIN LEVEL: 0
LLC AVERAGE MISS LATENCY: 209.1 cycles
LLC RQ	ACCESS:     743851	FORWARD:          0	MERGED:          0	TO_CACHE:     743850
LLC WQ	ACCESS:     458446	FORWARD:          6	MERGED:          0	TO_CACHE:     458446
LLC PQ	ACCESS:    1553239	FORWARD:          0	MERGED:          0	TO_CACHE:    1553234

LLC Dense regions hint to LLC: 0

RAW hits: 766636
Loads Generated: 14875437
Loads sent to L1D: 14108801
Stores Generated: 8476013
Stores sent to L1D: 8476021
Major fault: 0 Minor fault: 33441
Allocated PAGES: 33441
Prefetcher final stats
Training Unit Size: 537
Addr table size: 396395 396413


Triggers: 1334004
No Prediction: 414445 31.0677
Stream end: 189613
No translation: 172485290 12929.9
Predictions: 4184715 313.696


Stream divergence: 218580 16.3853
Stream divergence -- new stream: 9877

DRAM Statistics
 CHANNEL 0
 RQ ROW_BUFFER_HIT:     128584  ROW_BUFFER_MISS:    1369118
 DBUS_CONGESTED:        157
 WQ ROW_BUFFER_HIT:      43338  ROW_BUFFER_MISS:     349481  FULL:          0

 AVG_CONGESTED_CYCLE: 4
 All warmup complete: 2
Channel 0 Bank busy for read cycles: 0
Channel 0 Bank busy for write cycles: 0
Channel 0
Rank 0
0banks busy for read cycles: 50008625
0banks busy for write cycles: 86904
1banks busy for read cycles: 30269192
1banks busy for write cycles: 10406327
2banks busy for read cycles: 18847407
2banks busy for write cycles: 5990868
3banks busy for read cycles: 13117666
3banks busy for write cycles: 4113508
4banks busy for read cycles: 9743592
4banks busy for write cycles: 2930625
5banks busy for read cycles: 6740705
5banks busy for write cycles: 2008545
6banks busy for read cycles: 3592671
6banks busy for write cycles: 1419939
7banks busy for read cycles: 1215622
7banks busy for write cycles: 985493
8banks busy for read cycles: 220970
8banks busy for write cycles: 693160

CPU 0 Branch Prediction Accuracy: 94.0755% MPKI: 14.2353 Average ROB Occupancy at Mispredict: 25.2005
Branch types
NOT_BRANCH: 37985796 75.9716%
BRANCH_DIRECT_JUMP: 964405 1.92881%
BRANCH_INDIRECT: 140341 0.280682%
BRANCH_CONDITIONAL: 7911981 15.824%
BRANCH_DIRECT_CALL: 1294152 2.5883%
BRANCH_INDIRECT_CALL: 204449 0.408898%
BRANCH_RETURN: 1498606 2.99721%
BRANCH_OTHER: 0 0%

DRAM PAGES: 1048576
Allocated PAGES: 33441
