
*** ChampSim Multicore Out-of-Order Simulator ***

Warmup Instructions: 50000000
Simulation Instructions: 50000000
Number of CPUs: 1
LLC sets: 2048
LLC ways: 16
Off-chip DRAM Size: 4096 MB Channels: 1 Width: 64-bit Data Rate: 6400 MT/s
CPU 0 runs traces/SPEC-CPU2017/471.omnetpp-188B.champsimtrace.xz
.xz
CPU 0 Bimodal branch predictor
BTB has LRU replacement policy
ITLB has LRU replacement policy
DTLB has LRU replacement policy
STLB has LRU replacement policy
L1I has LRU replacement policy
L1D has LRU replacement policy
L2C has LRU replacement policy
LLC has LRU replacement policy
Heartbeat CPU 0 instructions: 10000001 cycles: 3269773 heartbeat IPC: 3.05832 cumulative IPC: 3.05832 (Simulation time: 0 hr 3 min 30 sec) 
Heartbeat CPU 0 instructions: 20000000 cycles: 6498402 heartbeat IPC: 3.09729 cumulative IPC: 3.07768 (Simulation time: 0 hr 6 min 53 sec) 
Heartbeat CPU 0 instructions: 30000000 cycles: 9749594 heartbeat IPC: 3.07579 cumulative IPC: 3.07705 (Simulation time: 0 hr 10 min 24 sec) 
Heartbeat CPU 0 instructions: 40000000 cycles: 12989941 heartbeat IPC: 3.08609 cumulative IPC: 3.07931 (Simulation time: 0 hr 13 min 51 sec) 
Heartbeat CPU 0 instructions: 50000003 cycles: 16223376 heartbeat IPC: 3.09269 cumulative IPC: 3.08197 (Simulation time: 0 hr 17 min 17 sec) 

Warmup complete CPU 0 instructions: 50000003 cycles: 16223376 (Simulation time: 0 hr 17 min 17 sec) 

Heartbeat CPU 0 instructions: 60000000 cycles: 56706573 heartbeat IPC: 0.247016 cumulative IPC: 0.247016 (Simulation time: 0 hr 18 min 20 sec) 
Heartbeat CPU 0 instructions: 70000001 cycles: 95910479 heartbeat IPC: 0.255077 cumulative IPC: 0.250982 (Simulation time: 0 hr 19 min 23 sec) 
Heartbeat CPU 0 instructions: 80000000 cycles: 137199965 heartbeat IPC: 0.242192 cumulative IPC: 0.247982 (Simulation time: 0 hr 20 min 30 sec) 
Heartbeat CPU 0 instructions: 90000003 cycles: 178557642 heartbeat IPC: 0.241793 cumulative IPC: 0.246405 (Simulation time: 0 hr 21 min 34 sec) 
Heartbeat CPU 0 instructions: 100000000 cycles: 219956506 heartbeat IPC: 0.241552 cumulative IPC: 0.245419 (Simulation time: 0 hr 22 min 39 sec) 
Finished CPU 0 instructions: 50000000 cycles: 203733139 cumulative IPC: 0.245419 (Simulation time: 0 hr 22 min 39 sec) 

ChampSim completed all CPUs

Region of Interest Statistics

CPU 0 cumulative IPC: 0.245419 instructions: 50000000 cycles: 203733139
ITLB TOTAL     ACCESS:    8723767  HIT:    8706564  MISS:      17203  HIT %:    99.8028  MISS %:   0.197197   MPKI: 0.34406
ITLB LOAD TRANSLATION ACCESS:    8723767  HIT:    8706564  MISS:      17203  HIT %:    99.8028  MISS %:   0.197197   MPKI: 0.34406
ITLB PREFETCH  REQUESTED:          0  ISSUED:          0  USEFUL:          0  USELESS:          0
ITLB USEFUL LOAD PREFETCHES:          0 PREFETCH ISSUED TO LOWER LEVEL:          0  ACCURACY: -nan
ITLB TIMELY PREFETCHES:          0 LATE PREFETCHES: 0 DROPPED PREFETCHES: 0
ITLB PREFETCHES SAME FILL-ORIGIN LEVEL: 0 DIFFERENT FILL-ORIGIN LEVEL: 0
ITLB AVERAGE MISS LATENCY: 11.6141 cycles
ITLB RQ	ACCESS:    9815367	FORWARD:          0	MERGED:    1083983	TO_CACHE:    8731384

DTLB TOTAL     ACCESS:   14656963  HIT:   13699508  MISS:     957455  HIT %:    93.4676  MISS %:    6.53242   MPKI: 19.1491
DTLB LOAD TRANSLATION ACCESS:   14656963  HIT:   13699508  MISS:     957455  HIT %:    93.4676  MISS %:    6.53242   MPKI: 19.1491
DTLB PREFETCH  REQUESTED:          0  ISSUED:          0  USEFUL:          0  USELESS:          0
DTLB USEFUL LOAD PREFETCHES:          0 PREFETCH ISSUED TO LOWER LEVEL:          0  ACCURACY: -nan
DTLB TIMELY PREFETCHES:          0 LATE PREFETCHES: 0 DROPPED PREFETCHES: 0
DTLB PREFETCHES SAME FILL-ORIGIN LEVEL: 0 DIFFERENT FILL-ORIGIN LEVEL: 0
DTLB AVERAGE MISS LATENCY: 21.6156 cycles
DTLB RQ	ACCESS:   17834449	FORWARD:          0	MERGED:    3131317	TO_CACHE:   14703132

STLB TOTAL     ACCESS:    3185895  HIT:    2884623  MISS:     301272  HIT %:    90.5436  MISS %:    9.45643   MPKI: 6.02544
STLB LOAD TRANSLATION ACCESS:     974658  HIT:     805847  MISS:     168811  HIT %:      82.68  MISS %:      17.32   MPKI: 3.37622
STLB TRANSLATION FROM L1D PREFETCHER ACCESS:    2211237  HIT:    2078776  MISS:     132461  HIT %:    94.0096  MISS %:    5.99036   MPKI: 2.64922
STLB PREFETCH  REQUESTED:          0  ISSUED:          0  USEFUL:      94362  USELESS:      38058
STLB USEFUL LOAD PREFETCHES:      94362 PREFETCH ISSUED TO LOWER LEVEL:          0  ACCURACY: inf
STLB TIMELY PREFETCHES:      94362 LATE PREFETCHES: 661 DROPPED PREFETCHES: 0
STLB PREFETCHES SAME FILL-ORIGIN LEVEL: 0 DIFFERENT FILL-ORIGIN LEVEL: 0
STLB AVERAGE MISS LATENCY: 80.8872 cycles
STLB RQ	ACCESS:    3648829	FORWARD:          0	MERGED:     460890	TO_CACHE:    3187939

STLB Hit, L1D data hit: 0
STLB Hit, L2C data hit: 0
STLB Hit, LLC data hit: 0
STLB Hit, LLC data miss: 0
STLB STLB hints to L2: 0
L1D TOTAL     ACCESS:   19920900  HIT:   18107500  MISS:    1813400  HIT %:     90.897  MISS %:      9.103   MPKI: 36.268
L1D LOAD      ACCESS:    9461163  HIT:    8618682  MISS:     842481  HIT %:    91.0954  MISS %:    8.90462   MPKI: 16.8496
L1D RFO       ACCESS:    7858490  HIT:    7694617  MISS:     163873  HIT %:    97.9147  MISS %:     2.0853   MPKI: 3.27746
L1D PREFETCH  ACCESS:    2601247  HIT:    1794201  MISS:     807046  HIT %:    68.9746  MISS %:    31.0254   MPKI: 16.1409
AGUS PREFETCH L1 MISS: 0
L1D PREFETCH  REQUESTED:    5438405  ISSUED:    5367136  USEFUL:     201151  USELESS:     605927
L1D USEFUL LOAD PREFETCHES:     201151 PREFETCH ISSUED TO LOWER LEVEL:     829221  ACCURACY: 24.2578
L1D TIMELY PREFETCHES:     201151 LATE PREFETCHES: 21306 DROPPED PREFETCHES: 0
L1D PREFETCHES SAME FILL-ORIGIN LEVEL: 829221 DIFFERENT FILL-ORIGIN LEVEL: 0
L1D AVERAGE MISS LATENCY: 157.413 cycles
L1D RQ	ACCESS:   14039948	FORWARD:          0	MERGED:    4044137	TO_CACHE:    9559120
L1D WQ	ACCESS:    8476021	FORWARD:     436869	MERGED:     200692	TO_CACHE:    8275329
L1D PQ	ACCESS:    2692965	FORWARD:          0	MERGED:      18616	TO_CACHE:    2674171

L1D UNIQUE REGIONS ACCESSED: 0
L1D REGIONS CONFLICTS: 0
L1D Cross Page Prefetch Requests: 1431414
L1D Same Page Prefetch Requests: 3769390
L1D ROI Sum of L1D PQ occupancy: 64282443
L1D PREFETCHES PUSHED FROM L2C: 0
L1I TOTAL     ACCESS:    9815069  HIT:    9813528  MISS:       1541  HIT %:    99.9843  MISS %:  0.0157003   MPKI: 0.03082
L1I LOAD      ACCESS:    9815069  HIT:    9813528  MISS:       1541  HIT %:    99.9843  MISS %:  0.0157003   MPKI: 0.03082
L1I PREFETCH  REQUESTED:          0  ISSUED:          0  USEFUL:          0  USELESS:          0
L1I USEFUL LOAD PREFETCHES:          0 PREFETCH ISSUED TO LOWER LEVEL:          0  ACCURACY: -nan
L1I TIMELY PREFETCHES:          0 LATE PREFETCHES: 0 DROPPED PREFETCHES: 0
L1I PREFETCHES SAME FILL-ORIGIN LEVEL: 0 DIFFERENT FILL-ORIGIN LEVEL: 0
L1I AVERAGE MISS LATENCY: 160.021 cycles
L1I RQ	ACCESS:   14780327	FORWARD:          0	MERGED:    4964960	TO_CACHE:    9815367

BTB TOTAL     ACCESS:   10008119  HIT:    9487971  MISS:     520148  HIT %:    94.8027  MISS %:    5.19726   MPKI: 10.403
BTB BRANCH_DIRECT_JUMP	ACCESS:     964405  HIT:     964243  MISS:        162
BTB BRANCH_INDIRECT	ACCESS:     140341  HIT:     116325  MISS:      24016
BTB BRANCH_CONDITIONAL	ACCESS:    5906166  HIT:    5905777  MISS:        389
BTB BRANCH_DIRECT_CALL	ACCESS:    1294152  HIT:    1293861  MISS:        291
BTB BRANCH_INDIRECT_CALL	ACCESS:     204449  HIT:     203146  MISS:       1303
BTB BRANCH_RETURN	ACCESS:    1498606  HIT:    1004619  MISS:     493987
BTB BRANCH_OTHER ACCESS:          0  HIT:          0  MISS:          0

L2C TOTAL     ACCESS:    2665575  HIT:    1018114  MISS:    1647461  HIT %:    38.1949  MISS %:    61.8051   MPKI: 32.9492
L2C LOAD      ACCESS:     822693  HIT:     126819  MISS:     695874  HIT %:    15.4151  MISS %:    84.5849   MPKI: 13.9175
L2C DATA LOAD MPKI: 13.8905
L2C INSTRUCTION LOAD MPKI: 0.02702
L2C RFO       ACCESS:     163004  HIT:      11417  MISS:     151587  HIT %:    7.00412  MISS %:    92.9959   MPKI: 3.03174
L2C PREFETCH  ACCESS:     829195  HIT:     167496  MISS:     661699  HIT %:    20.1998  MISS %:    79.8002   MPKI: 13.234
AGUS PREFETCH L1 MISS: 0
L2C DATA PREFETCH MPKI: 13.234
L2C INSTRUCTION PREFETCH MPKI: 0
L2C WRITEBACK ACCESS:     502398  HIT:     500365  MISS:       2033  HIT %:    99.5953  MISS %:   0.404659   MPKI: 0.04066
L2C LOAD TRANSLATION ACCESS:     188277  HIT:     121422  MISS:      66855  HIT %:    64.4911  MISS %:    35.5089   MPKI: 1.3371
L2C TRANSLATION FROM L1D PREFETCHER ACCESS:     160008  HIT:      90595  MISS:      69413  HIT %:     56.619  MISS %:     43.381   MPKI: 1.38826
L2C PREFETCH  REQUESTED:          0  ISSUED:          0  USEFUL:      55304  USELESS:     675345
L2C USEFUL LOAD PREFETCHES:      55304 PREFETCH ISSUED TO LOWER LEVEL:     661700  ACCURACY: 8.35787
L2C TIMELY PREFETCHES:      55304 LATE PREFETCHES: 0 DROPPED PREFETCHES: 0
L2C PREFETCHES SAME FILL-ORIGIN LEVEL: 0 DIFFERENT FILL-ORIGIN LEVEL: 0
L2C AVERAGE MISS LATENCY: 164.477 cycles
L2C RQ	ACCESS:    1334006	FORWARD:          0	MERGED:          0	TO_CACHE:    1333982
L2C WQ	ACCESS:     502398	FORWARD:         49	MERGED:          0	TO_CACHE:     502398
L2C PQ	ACCESS:     829221	FORWARD:          0	MERGED:          0	TO_CACHE:     829196

L2C Instructions Evicting Data 1265
L2C Translations Evicting Data 124466
L2C Data Evicting Data 1381568
L2C Instructions Evicting Instructions 9
L2C Translations Evicting Instructions 93
L2C Data Evicting Instructions 1247
L2C Instructions Evicting Translations 77
L2C Translations Evicting Translations 11709
L2C Data Evicting Translations 124994
L2C Dense regions hint from L2: 0
PSCL5 TOTAL     ACCESS:     301272  HIT:     301272  MISS:          0  HIT %:        100  MISS %:          0   MPKI: 0
PSCL5 LOAD TRANSLATION ACCESS:     168150  HIT:     168150  MISS:          0  HIT %:        100  MISS %:          0   MPKI: 0
PSCL5 TRANSLATION FROM L1D PREFETCHER ACCESS:     133122  HIT:     133122  MISS:          0  HIT %:        100  MISS %:          0   MPKI: 0
PSCL5 PREFETCH  REQUESTED:          0  ISSUED:          0  USEFUL:          0  USELESS:          0
PSCL5 USEFUL LOAD PREFETCHES:          0 PREFETCH ISSUED TO LOWER LEVEL:          0  ACCURACY: -nan
PSCL5 TIMELY PREFETCHES:          0 LATE PREFETCHES: 0 DROPPED PREFETCHES: 0
PSCL5 PREFETCHES SAME FILL-ORIGIN LEVEL: 0 DIFFERENT FILL-ORIGIN LEVEL: 0

PSCL4 TOTAL     ACCESS:     301272  HIT:     301272  MISS:          0  HIT %:        100  MISS %:          0   MPKI: 0
PSCL4 LOAD TRANSLATION ACCESS:     168150  HIT:     168150  MISS:          0  HIT %:        100  MISS %:          0   MPKI: 0
PSCL4 TRANSLATION FROM L1D PREFETCHER ACCESS:     133122  HIT:     133122  MISS:          0  HIT %:        100  MISS %:          0   MPKI: 0
PSCL4 PREFETCH  REQUESTED:          0  ISSUED:          0  USEFUL:          0  USELESS:          0
PSCL4 USEFUL LOAD PREFETCHES:          0 PREFETCH ISSUED TO LOWER LEVEL:          0  ACCURACY: -nan
PSCL4 TIMELY PREFETCHES:          0 LATE PREFETCHES: 0 DROPPED PREFETCHES: 0
PSCL4 PREFETCHES SAME FILL-ORIGIN LEVEL: 0 DIFFERENT FILL-ORIGIN LEVEL: 0

PSCL3 TOTAL     ACCESS:     301272  HIT:     301272  MISS:          0  HIT %:        100  MISS %:          0   MPKI: 0
PSCL3 LOAD TRANSLATION ACCESS:     168150  HIT:     168150  MISS:          0  HIT %:        100  MISS %:          0   MPKI: 0
PSCL3 TRANSLATION FROM L1D PREFETCHER ACCESS:     133122  HIT:     133122  MISS:          0  HIT %:        100  MISS %:          0   MPKI: 0
PSCL3 PREFETCH  REQUESTED:          0  ISSUED:          0  USEFUL:          0  USELESS:          0
PSCL3 USEFUL LOAD PREFETCHES:          0 PREFETCH ISSUED TO LOWER LEVEL:          0  ACCURACY: -nan
PSCL3 TIMELY PREFETCHES:          0 LATE PREFETCHES: 0 DROPPED PREFETCHES: 0
PSCL3 PREFETCHES SAME FILL-ORIGIN LEVEL: 0 DIFFERENT FILL-ORIGIN LEVEL: 0

PSCL2 TOTAL     ACCESS:     301272  HIT:     254258  MISS:      47014  HIT %:    84.3948  MISS %:    15.6052   MPKI: 0.94028
PSCL2 LOAD TRANSLATION ACCESS:     195036  HIT:     148022  MISS:      47014  HIT %:    75.8947  MISS %:    24.1053   MPKI: 0.94028
PSCL2 TRANSLATION FROM L1D PREFETCHER ACCESS:     106236  HIT:     106236  MISS:          0  HIT %:        100  MISS %:          0   MPKI: 0
PSCL2 PREFETCH  REQUESTED:          0  ISSUED:          0  USEFUL:          0  USELESS:          0
PSCL2 USEFUL LOAD PREFETCHES:          0 PREFETCH ISSUED TO LOWER LEVEL:          0  ACCURACY: -nan
PSCL2 TIMELY PREFETCHES:          0 LATE PREFETCHES: 0 DROPPED PREFETCHES: 0
PSCL2 PREFETCHES SAME FILL-ORIGIN LEVEL: 0 DIFFERENT FILL-ORIGIN LEVEL: 0

LLC TOTAL     ACCESS:    2092686  HIT:     791315  MISS:    1301371  HIT %:    37.8134  MISS %:    62.1866   MPKI: 26.0274
LLC LOAD      ACCESS:     695874  HIT:     113591  MISS:     582283  HIT %:    16.3235  MISS %:    83.6765   MPKI: 11.6457
LLC RFO       ACCESS:     151587  HIT:      20530  MISS:     131057  HIT %:    13.5434  MISS %:    86.4566   MPKI: 2.62114
LLC PREFETCH  ACCESS:     661699  HIT:     121596  MISS:     540103  HIT %:    18.3763  MISS %:    81.6237   MPKI: 10.8021
AGUS PREFETCH L1 MISS: 0
LLC WRITEBACK ACCESS:     447258  HIT:     445792  MISS:       1466  HIT %:    99.6722  MISS %:   0.327775   MPKI: 0.02932
LLC LOAD TRANSLATION ACCESS:      66855  HIT:      48043  MISS:      18812  HIT %:    71.8615  MISS %:    28.1385   MPKI: 0.37624
LLC TRANSLATION FROM L1D PREFETCHER ACCESS:      69413  HIT:      41763  MISS:      27650  HIT %:     60.166  MISS %:     39.834   MPKI: 0.553
LLC PREFETCH  REQUESTED:          0  ISSUED:          0  USEFUL:      37091  USELESS:     531553
LLC USEFUL LOAD PREFETCHES:      37091 PREFETCH ISSUED TO LOWER LEVEL:     540104  ACCURACY: 6.86738
LLC TIMELY PREFETCHES:      37091 LATE PREFETCHES: 0 DROPPED PREFETCHES: 0
LLC PREFETCHES SAME FILL-ORIGIN LEVEL: 0 DIFFERENT FILL-ORIGIN LEVEL: 0
LLC AVERAGE MISS LATENCY: 170.236 cycles
LLC RQ	ACCESS:     983729	FORWARD:          0	MERGED:          0	TO_CACHE:     983729
LLC WQ	ACCESS:     447258	FORWARD:          0	MERGED:          0	TO_CACHE:     447258
LLC PQ	ACCESS:     661700	FORWARD:          0	MERGED:          0	TO_CACHE:     661700

LLC Dense regions hint to LLC: 0

RAW hits: 835487
Loads Generated: 14875435
Loads sent to L1D: 14039948
Stores Generated: 8476009
Stores sent to L1D: 8476021
Major fault: 0 Minor fault: 33441
Allocated PAGES: 33441

stream: 
stream:times selected: 4300926
stream:pref_filled: 776023
stream:pref_useful: 142215
stream:pref_late: 16244
stream:misses: 21046
stream:misses_by_poll: 0

CS: 
CS:times selected: 56777
CS:pref_filled: 21410
CS:pref_useful: 4409
CS:pref_late: 303
CS:misses: 590
CS:misses_by_poll: 2

CPLX: 
CPLX:times selected: 4260438
CPLX:pref_filled: 235187
CPLX:pref_useful: 10356
CPLX:pref_late: 1324
CPLX:misses: 66452
CPLX:misses_by_poll: 132

ISB: 
ISB:times selected:4023531
ISB:pref_filled: 460508
ISB:pref_useful: 199108
ISB:pref_late: 13659
ISB:misses: 493585
ISB:misses_by_poll: 891

NL_L1: 
NL:times selected: 17471
NL:pref_filled: 4902
NL:pref_useful: 723
NL:pref_late: 105
NL:misses: 3335
NL:misses_by_poll: 0

total selections: 12659143
total_filled: 807046
total_useful: 201151
total_late: 33258
total_polluted: 1025
total_misses_after_warmup: 940438
conflicts: 4580712

test: 2671299

DRAM Statistics
 CHANNEL 0
 RQ ROW_BUFFER_HIT:     142261  ROW_BUFFER_MISS:    1157626
 DBUS_CONGESTED:        655
 WQ ROW_BUFFER_HIT:     126232  ROW_BUFFER_MISS:     257395  FULL:          0

 AVG_CONGESTED_CYCLE: 4
 All warmup complete: 2
Channel 0 Bank busy for read cycles: 0
Channel 0 Bank busy for write cycles: 0
Channel 0
Rank 0
0banks busy for read cycles: 55992243
0banks busy for write cycles: 126857
1banks busy for read cycles: 57588552
1banks busy for write cycles: 19840559
2banks busy for read cycles: 28081380
2banks busy for write cycles: 10782807
3banks busy for read cycles: 11892951
3banks busy for write cycles: 5918481
4banks busy for read cycles: 4624137
4banks busy for write cycles: 3301227
5banks busy for read cycles: 1745731
5banks busy for write cycles: 1736185
6banks busy for read cycles: 515478
6banks busy for write cycles: 858541
7banks busy for read cycles: 120756
7banks busy for write cycles: 409993
8banks busy for read cycles: 20875
8banks busy for write cycles: 176387

CPU 0 Branch Prediction Accuracy: 94.0755% MPKI: 14.2353 Average ROB Occupancy at Mispredict: 26.227
Branch types
NOT_BRANCH: 37985796 75.9716%
BRANCH_DIRECT_JUMP: 964405 1.92881%
BRANCH_INDIRECT: 140341 0.280682%
BRANCH_CONDITIONAL: 7911981 15.824%
BRANCH_DIRECT_CALL: 1294152 2.5883%
BRANCH_INDIRECT_CALL: 204449 0.408898%
BRANCH_RETURN: 1498606 2.99721%
BRANCH_OTHER: 0 0%

DRAM PAGES: 1048576
Allocated PAGES: 33441
