
*** ChampSim Multicore Out-of-Order Simulator ***

Warmup Instructions: 50000000
Simulation Instructions: 50000000
Number of CPUs: 1
LLC sets: 2048
LLC ways: 16
Off-chip DRAM Size: 4096 MB Channels: 1 Width: 64-bit Data Rate: 6400 MT/s
CPU 0 runs traces/SPEC-CPU2017/471.omnetpp-188B.champsimtrace.xz
.xz
CPU 0 Bimodal branch predictor
BTB has LRU replacement policy
ITLB has LRU replacement policy
DTLB has LRU replacement policy
STLB has LRU replacement policy
L1I has LRU replacement policy
L1D has LRU replacement policy
L2C has LRU replacement policy
LLC has LRU replacement policy
Heartbeat CPU 0 instructions: 10000001 cycles: 3274753 heartbeat IPC: 3.05367 cumulative IPC: 3.05367 (Simulation time: 0 hr 3 min 31 sec) 
Heartbeat CPU 0 instructions: 20000000 cycles: 6508779 heartbeat IPC: 3.09212 cumulative IPC: 3.07277 (Simulation time: 0 hr 6 min 54 sec) 
Heartbeat CPU 0 instructions: 30000000 cycles: 9763812 heartbeat IPC: 3.07217 cumulative IPC: 3.07257 (Simulation time: 0 hr 10 min 25 sec) 
Heartbeat CPU 0 instructions: 40000000 cycles: 13009491 heartbeat IPC: 3.08102 cumulative IPC: 3.07468 (Simulation time: 0 hr 13 min 50 sec) 
Heartbeat CPU 0 instructions: 50000003 cycles: 16244595 heartbeat IPC: 3.09109 cumulative IPC: 3.07795 (Simulation time: 0 hr 17 min 16 sec) 

Warmup complete CPU 0 instructions: 50000003 cycles: 16244595 (Simulation time: 0 hr 17 min 16 sec) 

Heartbeat CPU 0 instructions: 60000000 cycles: 56285763 heartbeat IPC: 0.249743 cumulative IPC: 0.249743 (Simulation time: 0 hr 18 min 20 sec) 
Heartbeat CPU 0 instructions: 70000001 cycles: 94821074 heartbeat IPC: 0.259502 cumulative IPC: 0.254529 (Simulation time: 0 hr 19 min 23 sec) 
Heartbeat CPU 0 instructions: 80000000 cycles: 135329888 heartbeat IPC: 0.24686 cumulative IPC: 0.25192 (Simulation time: 0 hr 20 min 30 sec) 
Heartbeat CPU 0 instructions: 90000003 cycles: 175667070 heartbeat IPC: 0.24791 cumulative IPC: 0.250906 (Simulation time: 0 hr 21 min 35 sec) 
Heartbeat CPU 0 instructions: 100000000 cycles: 215966982 heartbeat IPC: 0.248139 cumulative IPC: 0.250347 (Simulation time: 0 hr 22 min 39 sec) 
Finished CPU 0 instructions: 50000000 cycles: 199722396 cumulative IPC: 0.250347 (Simulation time: 0 hr 22 min 39 sec) 

ChampSim completed all CPUs

Region of Interest Statistics

CPU 0 cumulative IPC: 0.250347 instructions: 50000000 cycles: 199722396
ITLB TOTAL     ACCESS:    8722010  HIT:    8704807  MISS:      17203  HIT %:    99.8028  MISS %:   0.197237   MPKI: 0.34406
ITLB LOAD TRANSLATION ACCESS:    8722010  HIT:    8704807  MISS:      17203  HIT %:    99.8028  MISS %:   0.197237   MPKI: 0.34406
ITLB PREFETCH  REQUESTED:          0  ISSUED:          0  USEFUL:          0  USELESS:          0
ITLB USEFUL LOAD PREFETCHES:          0 PREFETCH ISSUED TO LOWER LEVEL:          0  ACCURACY: -nan
ITLB TIMELY PREFETCHES:          0 LATE PREFETCHES: 0 DROPPED PREFETCHES: 0
ITLB PREFETCHES SAME FILL-ORIGIN LEVEL: 0 DIFFERENT FILL-ORIGIN LEVEL: 0
ITLB AVERAGE MISS LATENCY: 12.0563 cycles
ITLB RQ	ACCESS:    9812933	FORWARD:          0	MERGED:    1083307	TO_CACHE:    8729626

DTLB TOTAL     ACCESS:   14655304  HIT:   13697823  MISS:     957481  HIT %:    93.4667  MISS %:    6.53334   MPKI: 19.1496
DTLB LOAD TRANSLATION ACCESS:   14655304  HIT:   13697823  MISS:     957481  HIT %:    93.4667  MISS %:    6.53334   MPKI: 19.1496
DTLB PREFETCH  REQUESTED:          0  ISSUED:          0  USEFUL:          0  USELESS:          0
DTLB USEFUL LOAD PREFETCHES:          0 PREFETCH ISSUED TO LOWER LEVEL:          0  ACCURACY: -nan
DTLB TIMELY PREFETCHES:          0 LATE PREFETCHES: 0 DROPPED PREFETCHES: 0
DTLB PREFETCHES SAME FILL-ORIGIN LEVEL: 0 DIFFERENT FILL-ORIGIN LEVEL: 0
DTLB AVERAGE MISS LATENCY: 20.1824 cycles
DTLB RQ	ACCESS:   17830577	FORWARD:          0	MERGED:    3129814	TO_CACHE:   14700763

STLB TOTAL     ACCESS:    3852744  HIT:    3422434  MISS:     430310  HIT %:    88.8311  MISS %:    11.1689   MPKI: 8.6062
STLB LOAD TRANSLATION ACCESS:     974684  HIT:     821506  MISS:     153178  HIT %:    84.2843  MISS %:    15.7157   MPKI: 3.06356
STLB TRANSLATION FROM L1D PREFETCHER ACCESS:    2878060  HIT:    2600928  MISS:     277132  HIT %:    90.3709  MISS %:    9.62913   MPKI: 5.54264
STLB PREFETCH  REQUESTED:          0  ISSUED:          0  USEFUL:     173691  USELESS:     103463
STLB USEFUL LOAD PREFETCHES:     173691 PREFETCH ISSUED TO LOWER LEVEL:          0  ACCURACY: inf
STLB TIMELY PREFETCHES:     173691 LATE PREFETCHES: 1076 DROPPED PREFETCHES: 0
STLB PREFETCHES SAME FILL-ORIGIN LEVEL: 0 DIFFERENT FILL-ORIGIN LEVEL: 0
STLB AVERAGE MISS LATENCY: 83.2812 cycles
STLB RQ	ACCESS:    4367364	FORWARD:          0	MERGED:     511644	TO_CACHE:    3855720

STLB Hit, L1D data hit: 0
STLB Hit, L2C data hit: 0
STLB Hit, LLC data hit: 0
STLB Hit, LLC data miss: 0
STLB STLB hints to L2: 0
L1D TOTAL     ACCESS:   20644312  HIT:   18609274  MISS:    2035038  HIT %:    90.1424  MISS %:    9.85762   MPKI: 40.7008
L1D LOAD      ACCESS:    9466816  HIT:    8651797  MISS:     815019  HIT %:    91.3908  MISS %:    8.60922   MPKI: 16.3004
L1D RFO       ACCESS:    7871570  HIT:    7711368  MISS:     160202  HIT %:    97.9648  MISS %:     2.0352   MPKI: 3.20404
L1D PREFETCH  ACCESS:    3305926  HIT:    2246109  MISS:    1059817  HIT %:    67.9419  MISS %:    32.0581   MPKI: 21.1963
AGUS PREFETCH L1 MISS: 0
L1D PREFETCH  REQUESTED:    7096594  ISSUED:    6827117  USEFUL:     243662  USELESS:     816176
L1D USEFUL LOAD PREFETCHES:     243662 PREFETCH ISSUED TO LOWER LEVEL:    1089139  ACCURACY: 22.372
L1D TIMELY PREFETCHES:     243662 LATE PREFETCHES: 28253 DROPPED PREFETCHES: 0
L1D PREFETCHES SAME FILL-ORIGIN LEVEL: 1089139 DIFFERENT FILL-ORIGIN LEVEL: 0
L1D AVERAGE MISS LATENCY: 156.78 cycles
L1D RQ	ACCESS:   14041030	FORWARD:          0	MERGED:    4041928	TO_CACHE:    9559935
L1D WQ	ACCESS:    8476021	FORWARD:     439433	MERGED:     205379	TO_CACHE:    8270642
L1D PQ	ACCESS:    3434437	FORWARD:          0	MERGED:      41491	TO_CACHE:    3392680

L1D UNIQUE REGIONS ACCESSED: 0
L1D REGIONS CONFLICTS: 0
L1D Cross Page Prefetch Requests: 2793080
L1D Same Page Prefetch Requests: 3764380
L1D ROI Sum of L1D PQ occupancy: 105463308
L1D PREFETCHES PUSHED FROM L2C: 0
L1I TOTAL     ACCESS:    9812632  HIT:    9811091  MISS:       1541  HIT %:    99.9843  MISS %:  0.0157042   MPKI: 0.03082
L1I LOAD      ACCESS:    9812632  HIT:    9811091  MISS:       1541  HIT %:    99.9843  MISS %:  0.0157042   MPKI: 0.03082
L1I PREFETCH  REQUESTED:          0  ISSUED:          0  USEFUL:          0  USELESS:          0
L1I USEFUL LOAD PREFETCHES:          0 PREFETCH ISSUED TO LOWER LEVEL:          0  ACCURACY: -nan
L1I TIMELY PREFETCHES:          0 LATE PREFETCHES: 0 DROPPED PREFETCHES: 0
L1I PREFETCHES SAME FILL-ORIGIN LEVEL: 0 DIFFERENT FILL-ORIGIN LEVEL: 0
L1I AVERAGE MISS LATENCY: 161.565 cycles
L1I RQ	ACCESS:   14775066	FORWARD:          0	MERGED:    4962133	TO_CACHE:    9812933

BTB TOTAL     ACCESS:   10008119  HIT:    9487971  MISS:     520148  HIT %:    94.8027  MISS %:    5.19726   MPKI: 10.403
BTB BRANCH_DIRECT_JUMP	ACCESS:     964405  HIT:     964243  MISS:        162
BTB BRANCH_INDIRECT	ACCESS:     140341  HIT:     116325  MISS:      24016
BTB BRANCH_CONDITIONAL	ACCESS:    5906166  HIT:    5905777  MISS:        389
BTB BRANCH_DIRECT_CALL	ACCESS:    1294152  HIT:    1293861  MISS:        291
BTB BRANCH_INDIRECT_CALL	ACCESS:     204449  HIT:     203146  MISS:       1303
BTB BRANCH_RETURN	ACCESS:    1498606  HIT:    1004619  MISS:     493987
BTB BRANCH_OTHER ACCESS:          0  HIT:          0  MISS:          0

L2C TOTAL     ACCESS:    3069027  HIT:    1224034  MISS:    1844993  HIT %:    39.8835  MISS %:    60.1165   MPKI: 36.8999
L2C LOAD      ACCESS:     788263  HIT:     138513  MISS:     649750  HIT %:    17.5719  MISS %:    82.4281   MPKI: 12.995
L2C DATA LOAD MPKI: 12.9678
L2C INSTRUCTION LOAD MPKI: 0.02724
L2C RFO       ACCESS:     159134  HIT:      12874  MISS:     146260  HIT %:    8.09004  MISS %:      91.91   MPKI: 2.9252
L2C PREFETCH  ACCESS:    1089109  HIT:     231608  MISS:     857501  HIT %:    21.2658  MISS %:    78.7342   MPKI: 17.15
AGUS PREFETCH L1 MISS: 0
L2C DATA PREFETCH MPKI: 17.15
L2C INSTRUCTION PREFETCH MPKI: 0
L2C WRITEBACK ACCESS:     506489  HIT:     504136  MISS:       2353  HIT %:    99.5354  MISS %:   0.464571   MPKI: 0.04706
L2C LOAD TRANSLATION ACCESS:     175799  HIT:     122617  MISS:      53182  HIT %:    69.7484  MISS %:    30.2516   MPKI: 1.06364
L2C TRANSLATION FROM L1D PREFETCHER ACCESS:     350233  HIT:     214286  MISS:     135947  HIT %:    61.1838  MISS %:    38.8162   MPKI: 2.71894
L2C PREFETCH  REQUESTED:          0  ISSUED:          0  USEFUL:      96524  USELESS:     896582
L2C USEFUL LOAD PREFETCHES:      96524 PREFETCH ISSUED TO LOWER LEVEL:     857502  ACCURACY: 11.2564
L2C TIMELY PREFETCHES:      96524 LATE PREFETCHES: 0 DROPPED PREFETCHES: 0
L2C PREFETCHES SAME FILL-ORIGIN LEVEL: 0 DIFFERENT FILL-ORIGIN LEVEL: 0
L2C AVERAGE MISS LATENCY: 165.296 cycles
L2C RQ	ACCESS:    1473473	FORWARD:          0	MERGED:          0	TO_CACHE:    1473429
L2C WQ	ACCESS:     506489	FORWARD:         73	MERGED:          0	TO_CACHE:     506489
L2C PQ	ACCESS:    1089139	FORWARD:          0	MERGED:          0	TO_CACHE:    1089110

L2C Instructions Evicting Data 1250
L2C Translations Evicting Data 168707
L2C Data Evicting Data 1481835
L2C Instructions Evicting Instructions 7
L2C Translations Evicting Instructions 130
L2C Data Evicting Instructions 1225
L2C Instructions Evicting Translations 105
L2C Translations Evicting Translations 20292
L2C Data Evicting Translations 169089
L2C Dense regions hint from L2: 0
PSCL5 TOTAL     ACCESS:     430310  HIT:     430310  MISS:          0  HIT %:        100  MISS %:          0   MPKI: 0
PSCL5 LOAD TRANSLATION ACCESS:     152102  HIT:     152102  MISS:          0  HIT %:        100  MISS %:          0   MPKI: 0
PSCL5 TRANSLATION FROM L1D PREFETCHER ACCESS:     278208  HIT:     278208  MISS:          0  HIT %:        100  MISS %:          0   MPKI: 0
PSCL5 PREFETCH  REQUESTED:          0  ISSUED:          0  USEFUL:          0  USELESS:          0
PSCL5 USEFUL LOAD PREFETCHES:          0 PREFETCH ISSUED TO LOWER LEVEL:          0  ACCURACY: -nan
PSCL5 TIMELY PREFETCHES:          0 LATE PREFETCHES: 0 DROPPED PREFETCHES: 0
PSCL5 PREFETCHES SAME FILL-ORIGIN LEVEL: 0 DIFFERENT FILL-ORIGIN LEVEL: 0

PSCL4 TOTAL     ACCESS:     430310  HIT:     430310  MISS:          0  HIT %:        100  MISS %:          0   MPKI: 0
PSCL4 LOAD TRANSLATION ACCESS:     152102  HIT:     152102  MISS:          0  HIT %:        100  MISS %:          0   MPKI: 0
PSCL4 TRANSLATION FROM L1D PREFETCHER ACCESS:     278208  HIT:     278208  MISS:          0  HIT %:        100  MISS %:          0   MPKI: 0
PSCL4 PREFETCH  REQUESTED:          0  ISSUED:          0  USEFUL:          0  USELESS:          0
PSCL4 USEFUL LOAD PREFETCHES:          0 PREFETCH ISSUED TO LOWER LEVEL:          0  ACCURACY: -nan
PSCL4 TIMELY PREFETCHES:          0 LATE PREFETCHES: 0 DROPPED PREFETCHES: 0
PSCL4 PREFETCHES SAME FILL-ORIGIN LEVEL: 0 DIFFERENT FILL-ORIGIN LEVEL: 0

PSCL3 TOTAL     ACCESS:     430310  HIT:     430310  MISS:          0  HIT %:        100  MISS %:          0   MPKI: 0
PSCL3 LOAD TRANSLATION ACCESS:     152102  HIT:     152102  MISS:          0  HIT %:        100  MISS %:          0   MPKI: 0
PSCL3 TRANSLATION FROM L1D PREFETCHER ACCESS:     278208  HIT:     278208  MISS:          0  HIT %:        100  MISS %:          0   MPKI: 0
PSCL3 PREFETCH  REQUESTED:          0  ISSUED:          0  USEFUL:          0  USELESS:          0
PSCL3 USEFUL LOAD PREFETCHES:          0 PREFETCH ISSUED TO LOWER LEVEL:          0  ACCURACY: -nan
PSCL3 TIMELY PREFETCHES:          0 LATE PREFETCHES: 0 DROPPED PREFETCHES: 0
PSCL3 PREFETCHES SAME FILL-ORIGIN LEVEL: 0 DIFFERENT FILL-ORIGIN LEVEL: 0

PSCL2 TOTAL     ACCESS:     430310  HIT:     334587  MISS:      95723  HIT %:    77.7549  MISS %:    22.2451   MPKI: 1.91446
PSCL2 LOAD TRANSLATION ACCESS:     224127  HIT:     128404  MISS:      95723  HIT %:    57.2907  MISS %:    42.7093   MPKI: 1.91446
PSCL2 TRANSLATION FROM L1D PREFETCHER ACCESS:     206183  HIT:     206183  MISS:          0  HIT %:        100  MISS %:          0   MPKI: 0
PSCL2 PREFETCH  REQUESTED:          0  ISSUED:          0  USEFUL:          0  USELESS:          0
PSCL2 USEFUL LOAD PREFETCHES:          0 PREFETCH ISSUED TO LOWER LEVEL:          0  ACCURACY: -nan
PSCL2 TIMELY PREFETCHES:          0 LATE PREFETCHES: 0 DROPPED PREFETCHES: 0
PSCL2 PREFETCHES SAME FILL-ORIGIN LEVEL: 0 DIFFERENT FILL-ORIGIN LEVEL: 0

LLC TOTAL     ACCESS:    2292756  HIT:     871721  MISS:    1421035  HIT %:    38.0207  MISS %:    61.9793   MPKI: 28.4207
LLC LOAD      ACCESS:     649749  HIT:     107723  MISS:     542026  HIT %:    16.5792  MISS %:    83.4208   MPKI: 10.8405
LLC RFO       ACCESS:     146260  HIT:      20577  MISS:     125683  HIT %:    14.0688  MISS %:    85.9312   MPKI: 2.51366
LLC PREFETCH  ACCESS:     857500  HIT:     162899  MISS:     694601  HIT %:     18.997  MISS %:     81.003   MPKI: 13.892
AGUS PREFETCH L1 MISS: 0
LLC WRITEBACK ACCESS:     450118  HIT:     448521  MISS:       1597  HIT %:    99.6452  MISS %:   0.354796   MPKI: 0.03194
LLC LOAD TRANSLATION ACCESS:      53182  HIT:      41286  MISS:      11896  HIT %:    77.6315  MISS %:    22.3685   MPKI: 0.23792
LLC TRANSLATION FROM L1D PREFETCHER ACCESS:     135947  HIT:      90715  MISS:      45232  HIT %:    66.7282  MISS %:    33.2718   MPKI: 0.90464
LLC PREFETCH  REQUESTED:          0  ISSUED:          0  USEFUL:      55589  USELESS:     684950
LLC USEFUL LOAD PREFETCHES:      55589 PREFETCH ISSUED TO LOWER LEVEL:     694602  ACCURACY: 8.003
LLC TIMELY PREFETCHES:      55589 LATE PREFETCHES: 0 DROPPED PREFETCHES: 0
LLC PREFETCHES SAME FILL-ORIGIN LEVEL: 0 DIFFERENT FILL-ORIGIN LEVEL: 0
LLC AVERAGE MISS LATENCY: 175.66 cycles
LLC RQ	ACCESS:     985139	FORWARD:          0	MERGED:          0	TO_CACHE:     985138
LLC WQ	ACCESS:     450118	FORWARD:          2	MERGED:          0	TO_CACHE:     450118
LLC PQ	ACCESS:     857502	FORWARD:          0	MERGED:          0	TO_CACHE:     857501

LLC Dense regions hint to LLC: 0

RAW hits: 834405
Loads Generated: 14875435
Loads sent to L1D: 14041030
Stores Generated: 8476009
Stores sent to L1D: 8476021
Major fault: 0 Minor fault: 33441
Allocated PAGES: 33441

stream: 
stream:times selected: 4299654
stream:pref_filled: 773361
stream:pref_useful: 134005
stream:pref_late: 14948
stream:misses: 25642
stream:misses_by_poll: 0

CS: 
CS:times selected: 56382
CS:pref_filled: 21005
CS:pref_useful: 4324
CS:pref_late: 307
CS:misses: 654
CS:misses_by_poll: 1

CPLX: 
CPLX:times selected: 4259048
CPLX:pref_filled: 224568
CPLX:pref_useful: 9016
CPLX:pref_late: 1358
CPLX:misses: 65856
CPLX:misses_by_poll: 132

ISB: 
ISB:times selected:3987871
ISB:pref_filled: 908823
ISB:pref_useful: 275764
ISB:pref_late: 22102
ISB:misses: 464017
ISB:misses_by_poll: 1704

NL_L1: 
NL:times selected: 6512
NL:pref_filled: 2367
NL:pref_useful: 333
NL:pref_late: 48
NL:misses: 1446
NL:misses_by_poll: 0

total selections: 12609467
total_filled: 1059817
total_useful: 243662
total_late: 40407
total_polluted: 1837
total_misses_after_warmup: 908138
conflicts: 4580175

test: 2670574

DRAM Statistics
 CHANNEL 0
 RQ ROW_BUFFER_HIT:     137238  ROW_BUFFER_MISS:    1282150
 DBUS_CONGESTED:        585
 WQ ROW_BUFFER_HIT:     123953  ROW_BUFFER_MISS:     264419  FULL:          0

 AVG_CONGESTED_CYCLE: 4
 All warmup complete: 2
Channel 0 Bank busy for read cycles: 0
Channel 0 Bank busy for write cycles: 0
Channel 0
Rank 0
0banks busy for read cycles: 48606096
0banks busy for write cycles: 116558
1banks busy for read cycles: 57224808
1banks busy for write cycles: 18116594
2banks busy for read cycles: 29012901
2banks busy for write cycles: 10003113
3banks busy for read cycles: 14046057
3banks busy for write cycles: 5843858
4banks busy for read cycles: 5922372
4banks busy for write cycles: 3484619
5banks busy for read cycles: 2398538
5banks busy for write cycles: 2004926
6banks busy for read cycles: 764667
6banks busy for write cycles: 1077921
7banks busy for read cycles: 186926
7banks busy for write cycles: 563263
8banks busy for read cycles: 27565
8banks busy for write cycles: 321615

CPU 0 Branch Prediction Accuracy: 94.0755% MPKI: 14.2353 Average ROB Occupancy at Mispredict: 26.2375
Branch types
NOT_BRANCH: 37985796 75.9716%
BRANCH_DIRECT_JUMP: 964405 1.92881%
BRANCH_INDIRECT: 140341 0.280682%
BRANCH_CONDITIONAL: 7911981 15.824%
BRANCH_DIRECT_CALL: 1294152 2.5883%
BRANCH_INDIRECT_CALL: 204449 0.408898%
BRANCH_RETURN: 1498606 2.99721%
BRANCH_OTHER: 0 0%

DRAM PAGES: 1048576
Allocated PAGES: 33441
