
*** ChampSim Multicore Out-of-Order Simulator ***

Warmup Instructions: 50000000
Simulation Instructions: 50000000
Number of CPUs: 1
LLC sets: 2048
LLC ways: 16
Off-chip DRAM Size: 4096 MB Channels: 1 Width: 64-bit Data Rate: 6400 MT/s
CPU 0 runs traces/SPEC-CPU2017/602.gcc_s-2226B.champsimtrace.xz
.xz
CPU 0 Bimodal branch predictor
BTB has LRU replacement policy
ITLB has LRU replacement policy
DTLB has LRU replacement policy
STLB has LRU replacement policy
L1I has LRU replacement policy
L1D has LRU replacement policy
L2C has LRU replacement policy
LLC has LRU replacement policy
Heartbeat CPU 0 instructions: 10000001 cycles: 3758249 heartbeat IPC: 2.66081 cumulative IPC: 2.66081 (Simulation time: 0 hr 4 min 58 sec) 
Heartbeat CPU 0 instructions: 20000000 cycles: 7517447 heartbeat IPC: 2.66014 cumulative IPC: 2.66048 (Simulation time: 0 hr 9 min 58 sec) 
Heartbeat CPU 0 instructions: 30000001 cycles: 11271859 heartbeat IPC: 2.66353 cumulative IPC: 2.6615 (Simulation time: 0 hr 14 min 59 sec) 
Heartbeat CPU 0 instructions: 40000000 cycles: 15023683 heartbeat IPC: 2.66537 cumulative IPC: 2.66246 (Simulation time: 0 hr 20 min 0 sec) 
Heartbeat CPU 0 instructions: 50000000 cycles: 18773735 heartbeat IPC: 2.66663 cumulative IPC: 2.6633 (Simulation time: 0 hr 25 min 0 sec) 

Warmup complete CPU 0 instructions: 50000004 cycles: 18773736 (Simulation time: 0 hr 25 min 0 sec) 

Heartbeat CPU 0 instructions: 60000000 cycles: 44690301 heartbeat IPC: 0.385854 cumulative IPC: 0.385853 (Simulation time: 0 hr 26 min 0 sec) 
Heartbeat CPU 0 instructions: 70000000 cycles: 70388343 heartbeat IPC: 0.389135 cumulative IPC: 0.387487 (Simulation time: 0 hr 27 min 1 sec) 
Heartbeat CPU 0 instructions: 80000000 cycles: 96094700 heartbeat IPC: 0.389009 cumulative IPC: 0.387993 (Simulation time: 0 hr 28 min 1 sec) 
Heartbeat CPU 0 instructions: 90000001 cycles: 121774090 heartbeat IPC: 0.389417 cumulative IPC: 0.388348 (Simulation time: 0 hr 29 min 2 sec) 
Heartbeat CPU 0 instructions: 100000000 cycles: 147343590 heartbeat IPC: 0.391091 cumulative IPC: 0.388894 (Simulation time: 0 hr 30 min 3 sec) 
Finished CPU 0 instructions: 50000001 cycles: 128569874 cumulative IPC: 0.388894 (Simulation time: 0 hr 30 min 3 sec) 

ChampSim completed all CPUs

Region of Interest Statistics

CPU 0 cumulative IPC: 0.388894 instructions: 50000001 cycles: 128569874
ITLB TOTAL     ACCESS:   11158234  HIT:   11158234  MISS:          0  HIT %:        100  MISS %:          0   MPKI: 0
ITLB LOAD TRANSLATION ACCESS:   11158234  HIT:   11158234  MISS:          0  HIT %:        100  MISS %:          0   MPKI: 0
ITLB PREFETCH  REQUESTED:          0  ISSUED:          0  USEFUL:          0  USELESS:          0
ITLB USEFUL LOAD PREFETCHES:          0 PREFETCH ISSUED TO LOWER LEVEL:          0  ACCURACY: -nan
ITLB TIMELY PREFETCHES:          0 LATE PREFETCHES: 0 DROPPED PREFETCHES: 0
ITLB PREFETCHES SAME FILL-ORIGIN LEVEL: 0 DIFFERENT FILL-ORIGIN LEVEL: 0
ITLB AVERAGE MISS LATENCY: -nan cycles
ITLB RQ	ACCESS:   11331087	FORWARD:          0	MERGED:     172854	TO_CACHE:   11158233

DTLB TOTAL     ACCESS:    7728127  HIT:    7659641  MISS:      68486  HIT %:    99.1138  MISS %:   0.886191   MPKI: 1.36972
DTLB LOAD TRANSLATION ACCESS:    7728127  HIT:    7659641  MISS:      68486  HIT %:    99.1138  MISS %:   0.886191   MPKI: 1.36972
DTLB PREFETCH  REQUESTED:          0  ISSUED:          0  USEFUL:          0  USELESS:          0
DTLB USEFUL LOAD PREFETCHES:          0 PREFETCH ISSUED TO LOWER LEVEL:          0  ACCURACY: -nan
DTLB TIMELY PREFETCHES:          0 LATE PREFETCHES: 0 DROPPED PREFETCHES: 0
DTLB PREFETCHES SAME FILL-ORIGIN LEVEL: 0 DIFFERENT FILL-ORIGIN LEVEL: 0
DTLB AVERAGE MISS LATENCY: 30.692 cycles
DTLB RQ	ACCESS:    9092443	FORWARD:          0	MERGED:    1364219	TO_CACHE:    7728224

STLB TOTAL     ACCESS:    3447334  HIT:    3381291  MISS:      66043  HIT %:    98.0842  MISS %:    1.91577   MPKI: 1.32086
STLB LOAD TRANSLATION ACCESS:      68486  HIT:      45868  MISS:      22618  HIT %:    66.9743  MISS %:    33.0257   MPKI: 0.45236
STLB TRANSLATION FROM L1D PREFETCHER ACCESS:    3378848  HIT:    3335423  MISS:      43425  HIT %:    98.7148  MISS %:     1.2852   MPKI: 0.8685
STLB PREFETCH  REQUESTED:          0  ISSUED:          0  USEFUL:      43404  USELESS:         13
STLB USEFUL LOAD PREFETCHES:      43404 PREFETCH ISSUED TO LOWER LEVEL:          0  ACCURACY: inf
STLB TIMELY PREFETCHES:      43404 LATE PREFETCHES: 141 DROPPED PREFETCHES: 0
STLB PREFETCHES SAME FILL-ORIGIN LEVEL: 0 DIFFERENT FILL-ORIGIN LEVEL: 0
STLB AVERAGE MISS LATENCY: 91.8822 cycles
STLB RQ	ACCESS:    4934657	FORWARD:          0	MERGED:    1486804	TO_CACHE:    3447853

STLB Hit, L1D data hit: 0
STLB Hit, L2C data hit: 0
STLB Hit, LLC data hit: 0
STLB Hit, LLC data miss: 0
STLB STLB hints to L2: 0
L1D TOTAL     ACCESS:   13788158  HIT:    9990557  MISS:    3797601  HIT %:    72.4575  MISS %:    27.5425   MPKI: 75.952
L1D LOAD      ACCESS:    8388343  HIT:    8203280  MISS:     185063  HIT %:    97.7938  MISS %:    2.20619   MPKI: 3.70126
L1D RFO       ACCESS:     654316  HIT:     653764  MISS:        552  HIT %:    99.9156  MISS %:  0.0843629   MPKI: 0.01104
L1D PREFETCH  ACCESS:    4745499  HIT:    1133513  MISS:    3611986  HIT %:    23.8861  MISS %:    76.1139   MPKI: 72.2397
AGUS PREFETCH L1 MISS: 0
L1D PREFETCH  REQUESTED:    9879151  ISSUED:    9732342  USEFUL:    3333806  USELESS:     278196
L1D USEFUL LOAD PREFETCHES:    3333806 PREFETCH ISSUED TO LOWER LEVEL:    3730506  ACCURACY: 89.3661
L1D TIMELY PREFETCHES:    3333806 LATE PREFETCHES: 118112 DROPPED PREFETCHES: 0
L1D PREFETCHES SAME FILL-ORIGIN LEVEL: 3730506 DIFFERENT FILL-ORIGIN LEVEL: 0
L1D AVERAGE MISS LATENCY: 121.137 cycles
L1D RQ	ACCESS:   17950687	FORWARD:          0	MERGED:    9511054	TO_CACHE:    8438123
L1D WQ	ACCESS:     726205	FORWARD:       1510	MERGED:      71885	TO_CACHE:     654320
L1D PQ	ACCESS:    4866171	FORWARD:          0	MERGED:          0	TO_CACHE:    4866171

L1D UNIQUE REGIONS ACCESSED: 0
L1D REGIONS CONFLICTS: 0
L1D Cross Page Prefetch Requests: 103093
L1D Same Page Prefetch Requests: 10340495
L1D ROI Sum of L1D PQ occupancy: 75027747
L1D PREFETCHES PUSHED FROM L2C: 0
L1I TOTAL     ACCESS:   11331087  HIT:   11331087  MISS:          0  HIT %:        100  MISS %:          0   MPKI: 0
L1I LOAD      ACCESS:   11331087  HIT:   11331087  MISS:          0  HIT %:        100  MISS %:          0   MPKI: 0
L1I PREFETCH  REQUESTED:          0  ISSUED:          0  USEFUL:          0  USELESS:          0
L1I USEFUL LOAD PREFETCHES:          0 PREFETCH ISSUED TO LOWER LEVEL:          0  ACCURACY: -nan
L1I TIMELY PREFETCHES:          0 LATE PREFETCHES: 0 DROPPED PREFETCHES: 0
L1I PREFETCHES SAME FILL-ORIGIN LEVEL: 0 DIFFERENT FILL-ORIGIN LEVEL: 0
L1I AVERAGE MISS LATENCY: -nan cycles
L1I RQ	ACCESS:   16023449	FORWARD:          0	MERGED:    4692362	TO_CACHE:   11331087

BTB TOTAL     ACCESS:   11928195  HIT:   11928097  MISS:         98  HIT %:    99.9992  MISS %: 0.000821583   MPKI: 0.00196
BTB BRANCH_DIRECT_JUMP	ACCESS:     168848  HIT:     168822  MISS:         26
BTB BRANCH_INDIRECT	ACCESS:          0  HIT:          0  MISS:          0
BTB BRANCH_CONDITIONAL	ACCESS:   11592637  HIT:   11592588  MISS:         49
BTB BRANCH_DIRECT_CALL	ACCESS:      83355  HIT:      83345  MISS:         10
BTB BRANCH_INDIRECT_CALL	ACCESS:          0  HIT:          0  MISS:          0
BTB BRANCH_RETURN	ACCESS:      83355  HIT:      83342  MISS:         13
BTB BRANCH_OTHER ACCESS:          0  HIT:          0  MISS:          0

L2C TOTAL     ACCESS:    3871251  HIT:     207078  MISS:    3664173  HIT %:    5.34912  MISS %:    94.6509   MPKI: 73.2835
L2C LOAD      ACCESS:      66928  HIT:      18821  MISS:      48107  HIT %:    28.1213  MISS %:    71.8787   MPKI: 0.96214
L2C DATA LOAD MPKI: 0.96214
L2C INSTRUCTION LOAD MPKI: 0
L2C RFO       ACCESS:        148  HIT:         78  MISS:         70  HIT %:    52.7027  MISS %:    47.2973   MPKI: 0.0014
L2C PREFETCH  ACCESS:    3730502  HIT:     130601  MISS:    3599901  HIT %:     3.5009  MISS %:    96.4991   MPKI: 71.998
AGUS PREFETCH L1 MISS: 0
L2C DATA PREFETCH MPKI: 71.998
L2C INSTRUCTION PREFETCH MPKI: 0
L2C WRITEBACK ACCESS:       6102  HIT:       5933  MISS:        169  HIT %:    97.2304  MISS %:    2.76958   MPKI: 0.00338
L2C LOAD TRANSLATION ACCESS:      22943  HIT:      17748  MISS:       5195  HIT %:    77.3569  MISS %:    22.6431   MPKI: 0.1039
L2C TRANSLATION FROM L1D PREFETCHER ACCESS:      44628  HIT:      33897  MISS:      10731  HIT %:    75.9546  MISS %:    24.0454   MPKI: 0.21462
L2C PREFETCH  REQUESTED:          0  ISSUED:          0  USEFUL:      15732  USELESS:    3594820
L2C USEFUL LOAD PREFETCHES:      15732 PREFETCH ISSUED TO LOWER LEVEL:    3599905  ACCURACY: 0.437012
L2C TIMELY PREFETCHES:      15732 LATE PREFETCHES: 0 DROPPED PREFETCHES: 0
L2C PREFETCHES SAME FILL-ORIGIN LEVEL: 0 DIFFERENT FILL-ORIGIN LEVEL: 0
L2C AVERAGE MISS LATENCY: 110.615 cycles
L2C RQ	ACCESS:     134670	FORWARD:          0	MERGED:          0	TO_CACHE:     134647
L2C WQ	ACCESS:       6102	FORWARD:         23	MERGED:          0	TO_CACHE:       6102
L2C PQ	ACCESS:    3730506	FORWARD:          0	MERGED:          0	TO_CACHE:    3730506

L2C Instructions Evicting Data 0
L2C Translations Evicting Data 15879
L2C Data Evicting Data 3632211
L2C Instructions Evicting Instructions 0
L2C Translations Evicting Instructions 0
L2C Data Evicting Instructions 0
L2C Instructions Evicting Translations 0
L2C Translations Evicting Translations 47
L2C Data Evicting Translations 15867
L2C Dense regions hint from L2: 0
PSCL5 TOTAL     ACCESS:      66043  HIT:      66043  MISS:          0  HIT %:        100  MISS %:          0   MPKI: 0
PSCL5 LOAD TRANSLATION ACCESS:      22477  HIT:      22477  MISS:          0  HIT %:        100  MISS %:          0   MPKI: 0
PSCL5 TRANSLATION FROM L1D PREFETCHER ACCESS:      43566  HIT:      43566  MISS:          0  HIT %:        100  MISS %:          0   MPKI: 0
PSCL5 PREFETCH  REQUESTED:          0  ISSUED:          0  USEFUL:          0  USELESS:          0
PSCL5 USEFUL LOAD PREFETCHES:          0 PREFETCH ISSUED TO LOWER LEVEL:          0  ACCURACY: -nan
PSCL5 TIMELY PREFETCHES:          0 LATE PREFETCHES: 0 DROPPED PREFETCHES: 0
PSCL5 PREFETCHES SAME FILL-ORIGIN LEVEL: 0 DIFFERENT FILL-ORIGIN LEVEL: 0

PSCL4 TOTAL     ACCESS:      66043  HIT:      66043  MISS:          0  HIT %:        100  MISS %:          0   MPKI: 0
PSCL4 LOAD TRANSLATION ACCESS:      22477  HIT:      22477  MISS:          0  HIT %:        100  MISS %:          0   MPKI: 0
PSCL4 TRANSLATION FROM L1D PREFETCHER ACCESS:      43566  HIT:      43566  MISS:          0  HIT %:        100  MISS %:          0   MPKI: 0
PSCL4 PREFETCH  REQUESTED:          0  ISSUED:          0  USEFUL:          0  USELESS:          0
PSCL4 USEFUL LOAD PREFETCHES:          0 PREFETCH ISSUED TO LOWER LEVEL:          0  ACCURACY: -nan
PSCL4 TIMELY PREFETCHES:          0 LATE PREFETCHES: 0 DROPPED PREFETCHES: 0
PSCL4 PREFETCHES SAME FILL-ORIGIN LEVEL: 0 DIFFERENT FILL-ORIGIN LEVEL: 0

PSCL3 TOTAL     ACCESS:      66043  HIT:      66036  MISS:          7  HIT %:    99.9894  MISS %:  0.0105992   MPKI: 0.00014
PSCL3 LOAD TRANSLATION ACCESS:      22483  HIT:      22476  MISS:          7  HIT %:    99.9689  MISS %:  0.0311346   MPKI: 0.00014
PSCL3 TRANSLATION FROM L1D PREFETCHER ACCESS:      43560  HIT:      43560  MISS:          0  HIT %:        100  MISS %:          0   MPKI: 0
PSCL3 PREFETCH  REQUESTED:          0  ISSUED:          0  USEFUL:          0  USELESS:          0
PSCL3 USEFUL LOAD PREFETCHES:          0 PREFETCH ISSUED TO LOWER LEVEL:          0  ACCURACY: -nan
PSCL3 TIMELY PREFETCHES:          0 LATE PREFETCHES: 0 DROPPED PREFETCHES: 0
PSCL3 PREFETCHES SAME FILL-ORIGIN LEVEL: 0 DIFFERENT FILL-ORIGIN LEVEL: 0

PSCL2 TOTAL     ACCESS:      66043  HIT:      64521  MISS:       1522  HIT %:    97.6954  MISS %:    2.30456   MPKI: 0.03044
PSCL2 LOAD TRANSLATION ACCESS:      23533  HIT:      22011  MISS:       1522  HIT %:    93.5325  MISS %:    6.46751   MPKI: 0.03044
PSCL2 TRANSLATION FROM L1D PREFETCHER ACCESS:      42510  HIT:      42510  MISS:          0  HIT %:        100  MISS %:          0   MPKI: 0
PSCL2 PREFETCH  REQUESTED:          0  ISSUED:          0  USEFUL:          0  USELESS:          0
PSCL2 USEFUL LOAD PREFETCHES:          0 PREFETCH ISSUED TO LOWER LEVEL:          0  ACCURACY: -nan
PSCL2 TIMELY PREFETCHES:          0 LATE PREFETCHES: 0 DROPPED PREFETCHES: 0
PSCL2 PREFETCHES SAME FILL-ORIGIN LEVEL: 0 DIFFERENT FILL-ORIGIN LEVEL: 0

LLC TOTAL     ACCESS:    3669778  HIT:      26640  MISS:    3643138  HIT %:   0.725929  MISS %:    99.2741   MPKI: 72.8628
LLC LOAD      ACCESS:      48107  HIT:       1500  MISS:      46607  HIT %:    3.11805  MISS %:     96.882   MPKI: 0.93214
LLC RFO       ACCESS:         70  HIT:          0  MISS:         70  HIT %:          0  MISS %:        100   MPKI: 0.0014
LLC PREFETCH  ACCESS:    3599901  HIT:      18280  MISS:    3581621  HIT %:   0.507792  MISS %:    99.4922   MPKI: 71.6324
AGUS PREFETCH L1 MISS: 0
LLC WRITEBACK ACCESS:       5774  HIT:       5685  MISS:         89  HIT %:    98.4586  MISS %:    1.54139   MPKI: 0.00178
LLC LOAD TRANSLATION ACCESS:       5195  HIT:        432  MISS:       4763  HIT %:    8.31569  MISS %:    91.6843   MPKI: 0.09526
LLC TRANSLATION FROM L1D PREFETCHER ACCESS:      10731  HIT:        743  MISS:       9988  HIT %:    6.92387  MISS %:    93.0761   MPKI: 0.19976
LLC PREFETCH  REQUESTED:          0  ISSUED:          0  USEFUL:        956  USELESS:    3590281
LLC USEFUL LOAD PREFETCHES:        956 PREFETCH ISSUED TO LOWER LEVEL:    3581624  ACCURACY: 0.0266918
LLC TIMELY PREFETCHES:        956 LATE PREFETCHES: 0 DROPPED PREFETCHES: 0
LLC PREFETCHES SAME FILL-ORIGIN LEVEL: 0 DIFFERENT FILL-ORIGIN LEVEL: 0
LLC AVERAGE MISS LATENCY: 81.0817 cycles
LLC RQ	ACCESS:      64103	FORWARD:          0	MERGED:          0	TO_CACHE:      64103
LLC WQ	ACCESS:       5774	FORWARD:          0	MERGED:          0	TO_CACHE:       5774
LLC PQ	ACCESS:    3599905	FORWARD:          0	MERGED:          0	TO_CACHE:    3599905

LLC Dense regions hint to LLC: 0

RAW hits: 3915
Loads Generated: 17954602
Loads sent to L1D: 17950687
Stores Generated: 726205
Stores sent to L1D: 726205
Major fault: 0 Minor fault: 48887
Allocated PAGES: 48887

stream: 
stream:times selected: 10991520
stream:pref_reqs: 62222007
stream:pref_reqs_filtered_out: 53319288
stream:pref_filled: 6628082
stream:pref_useful: 6227935
stream:pref_late: 134266
stream:misses: 26789
stream:misses_by_poll: 0

CS: 
CS:times selected: 5853102
CS:pref_reqs: 16321855
CS:pref_reqs_filtered_out: 14887840
CS:pref_filled: 162863
CS:pref_useful: 145101
CS:pref_late: 8538
CS:misses: 240924
CS:misses_by_poll: 327

CPLX: 
CPLX:times selected: 5133829
CPLX:pref_reqs: 7453757
CPLX:pref_reqs_filtered_out: 6279721
CPLX:pref_filled: 393835
CPLX:pref_useful: 214834
CPLX:pref_late: 1764
CPLX:misses: 114095
CPLX:misses_by_poll: 852

ISB: 
ISB:times selected:84724
ISB:pref_reqs: 328697
ISB:pref_reqs_filtered_out: 58507
ISB:pref_filled: 120960
ISB:pref_useful: 108023
ISB:pref_late: 780
ISB:misses: 24460
ISB:misses_by_poll: 303
ISB:Stream end: 35556
ISB:No Prediction: 10906798 99.2292
ISB:No translation: 34477293 313.672
ISB:Predictions: 130306 1.18551

NL_L1: 
NL:times selected: 4322
NL:pref_reqs: 4322
NL:pref_reqs_filtered_out: 1641
NL:pref_filled: 1878
NL:pref_useful: 1856
NL:pref_late: 301
NL:misses: 831
NL:misses_by_poll: 0

total selections: 22067497
total_filled: 3611986
total_useful: 3333806
total_late: 148557
total_polluted: 1482
total_misses_after_warmup: 234842
conflicts: 63079

test: 2633384

DRAM Statistics
 CHANNEL 0
 RQ ROW_BUFFER_HIT:    3341273  ROW_BUFFER_MISS:     301777
 DBUS_CONGESTED:       1358
 WQ ROW_BUFFER_HIT:        810  ROW_BUFFER_MISS:       4890  FULL:          0

 AVG_CONGESTED_CYCLE: 4
 All warmup complete: 2
Channel 0 Bank busy for read cycles: 0
Channel 0 Bank busy for write cycles: 0
Channel 0
Rank 0
0banks busy for read cycles: 26737045
0banks busy for write cycles: 2993
1banks busy for read cycles: 28648767
1banks busy for write cycles: 798295
2banks busy for read cycles: 52100410
2banks busy for write cycles: 305162
3banks busy for read cycles: 11506470
3banks busy for write cycles: 127170
4banks busy for read cycles: 2804006
4banks busy for write cycles: 56697
5banks busy for read cycles: 1421428
5banks busy for write cycles: 28003
6banks busy for read cycles: 1734647
6banks busy for write cycles: 14234
7banks busy for read cycles: 1985152
7banks busy for write cycles: 3853
8banks busy for read cycles: 292940
8banks busy for write cycles: 2603

CPU 0 Branch Prediction Accuracy: 99.1302% MPKI: 3.1024 Average ROB Occupancy at Mispredict: 96.6665
Branch types
NOT_BRANCH: 32166917 64.3338%
BRANCH_DIRECT_JUMP: 168848 0.337696%
BRANCH_INDIRECT: 0 0%
BRANCH_CONDITIONAL: 17497543 34.9951%
BRANCH_DIRECT_CALL: 83355 0.16671%
BRANCH_INDIRECT_CALL: 0 0%
BRANCH_RETURN: 83355 0.16671%
BRANCH_OTHER: 0 0%

DRAM PAGES: 1048576
Allocated PAGES: 48887
