
*** ChampSim Multicore Out-of-Order Simulator ***

Warmup Instructions: 50000000
Simulation Instructions: 100000000
Number of CPUs: 1
LLC sets: 2048
LLC ways: 16
Off-chip DRAM Size: 4096 MB Channels: 1 Width: 64-bit Data Rate: 6400 MT/s
CPU 0 runs ./traces/GAP/bc-0.trace.gz
.gz
CPU 0 Bimodal branch predictor
BTB has LRU replacement policy
ITLB has LRU replacement policy
DTLB has LRU replacement policy
STLB has LRU replacement policy
L1I has LRU replacement policy
L1D has LRU replacement policy
L2C has LRU replacement policy
LLC has LRU replacement policy
Heartbeat CPU 0 instructions: 10000001 cycles: 3635511 heartbeat IPC: 2.75065 cumulative IPC: 2.75065 (Simulation time: 0 hr 0 min 40 sec) 
Heartbeat CPU 0 instructions: 20000000 cycles: 6719434 heartbeat IPC: 3.24262 cumulative IPC: 2.97644 (Simulation time: 0 hr 1 min 9 sec) 
Heartbeat CPU 0 instructions: 30000003 cycles: 9791065 heartbeat IPC: 3.2556 cumulative IPC: 3.06402 (Simulation time: 0 hr 1 min 38 sec) 
Heartbeat CPU 0 instructions: 40000000 cycles: 12860417 heartbeat IPC: 3.25802 cumulative IPC: 3.11032 (Simulation time: 0 hr 2 min 6 sec) 
Heartbeat CPU 0 instructions: 50000002 cycles: 15927897 heartbeat IPC: 3.26001 cumulative IPC: 3.13915 (Simulation time: 0 hr 2 min 35 sec) 

Warmup complete CPU 0 instructions: 50000002 cycles: 15927897 (Simulation time: 0 hr 2 min 35 sec) 

Heartbeat CPU 0 instructions: 60000000 cycles: 92882823 heartbeat IPC: 0.129946 cumulative IPC: 0.129946 (Simulation time: 0 hr 3 min 31 sec) 
Heartbeat CPU 0 instructions: 70000000 cycles: 169869213 heartbeat IPC: 0.129893 cumulative IPC: 0.12992 (Simulation time: 0 hr 4 min 27 sec) 
Heartbeat CPU 0 instructions: 80000000 cycles: 246199109 heartbeat IPC: 0.13101 cumulative IPC: 0.130281 (Simulation time: 0 hr 5 min 23 sec) 
Heartbeat CPU 0 instructions: 90000002 cycles: 322649000 heartbeat IPC: 0.130805 cumulative IPC: 0.130412 (Simulation time: 0 hr 6 min 19 sec) 
Heartbeat CPU 0 instructions: 100000000 cycles: 398715131 heartbeat IPC: 0.131465 cumulative IPC: 0.130621 (Simulation time: 0 hr 7 min 14 sec) 
Heartbeat CPU 0 instructions: 110000001 cycles: 474229116 heartbeat IPC: 0.132426 cumulative IPC: 0.130918 (Simulation time: 0 hr 8 min 10 sec) 
Heartbeat CPU 0 instructions: 120000000 cycles: 549196276 heartbeat IPC: 0.133392 cumulative IPC: 0.131266 (Simulation time: 0 hr 9 min 5 sec) 
Heartbeat CPU 0 instructions: 130000002 cycles: 624390391 heartbeat IPC: 0.132989 cumulative IPC: 0.131479 (Simulation time: 0 hr 10 min 1 sec) 
Heartbeat CPU 0 instructions: 140000000 cycles: 699523664 heartbeat IPC: 0.133097 cumulative IPC: 0.131657 (Simulation time: 0 hr 10 min 56 sec) 
Heartbeat CPU 0 instructions: 150000000 cycles: 774594785 heartbeat IPC: 0.133207 cumulative IPC: 0.13181 (Simulation time: 0 hr 11 min 52 sec) 
Finished CPU 0 instructions: 100000002 cycles: 758666889 cumulative IPC: 0.13181 (Simulation time: 0 hr 11 min 52 sec) 

ChampSim completed all CPUs

Region of Interest Statistics

CPU 0 cumulative IPC: 0.13181 instructions: 100000002 cycles: 758666889
ITLB TOTAL     ACCESS:   18737233  HIT:   18737233  MISS:          0  HIT %:        100  MISS %:          0   MPKI: 0
ITLB LOAD TRANSLATION ACCESS:   18737233  HIT:   18737233  MISS:          0  HIT %:        100  MISS %:          0   MPKI: 0
ITLB PREFETCH  REQUESTED:          0  ISSUED:          0  USEFUL:          0  USELESS:          0
ITLB USEFUL LOAD PREFETCHES:          0 PREFETCH ISSUED TO LOWER LEVEL:          0  ACCURACY: -nan
ITLB TIMELY PREFETCHES:          0 LATE PREFETCHES: 0 DROPPED PREFETCHES: 0
ITLB PREFETCHES SAME FILL-ORIGIN LEVEL: 0 DIFFERENT FILL-ORIGIN LEVEL: 0
ITLB AVERAGE MISS LATENCY: -nan cycles
ITLB RQ	ACCESS:   19107655	FORWARD:          0	MERGED:     370423	TO_CACHE:   18737232

DTLB TOTAL     ACCESS:   26069980  HIT:   22396704  MISS:    3673276  HIT %:    85.9099  MISS %:    14.0901   MPKI: 36.7328
DTLB LOAD TRANSLATION ACCESS:   26069980  HIT:   22396704  MISS:    3673276  HIT %:    85.9099  MISS %:    14.0901   MPKI: 36.7328
DTLB PREFETCH  REQUESTED:          0  ISSUED:          0  USEFUL:          0  USELESS:          0
DTLB USEFUL LOAD PREFETCHES:          0 PREFETCH ISSUED TO LOWER LEVEL:          0  ACCURACY: -nan
DTLB TIMELY PREFETCHES:          0 LATE PREFETCHES: 0 DROPPED PREFETCHES: 0
DTLB PREFETCHES SAME FILL-ORIGIN LEVEL: 0 DIFFERENT FILL-ORIGIN LEVEL: 0
DTLB AVERAGE MISS LATENCY: 19.6268 cycles
DTLB RQ	ACCESS:   27243088	FORWARD:          0	MERGED:     953268	TO_CACHE:   26289820

STLB TOTAL     ACCESS:    3673276  HIT:    2182575  MISS:    1490701  HIT %:    59.4177  MISS %:    40.5823   MPKI: 14.907
STLB LOAD TRANSLATION ACCESS:    3673276  HIT:    2182575  MISS:    1490701  HIT %:    59.4177  MISS %:    40.5823   MPKI: 14.907
STLB PREFETCH  REQUESTED:          0  ISSUED:          0  USEFUL:          0  USELESS:          0
STLB USEFUL LOAD PREFETCHES:          0 PREFETCH ISSUED TO LOWER LEVEL:          0  ACCURACY: -nan
STLB TIMELY PREFETCHES:          0 LATE PREFETCHES: 0 DROPPED PREFETCHES: 0
STLB PREFETCHES SAME FILL-ORIGIN LEVEL: 0 DIFFERENT FILL-ORIGIN LEVEL: 0
STLB AVERAGE MISS LATENCY: 25.8533 cycles
STLB RQ	ACCESS:    3673276	FORWARD:          0	MERGED:          0	TO_CACHE:    3673276

STLB Hit, L1D data hit: 0
STLB Hit, L2C data hit: 0
STLB Hit, LLC data hit: 0
STLB Hit, LLC data miss: 0
STLB STLB hints to L2: 0
L1D TOTAL     ACCESS:   26804189  HIT:   18139679  MISS:    8664510  HIT %:    67.6748  MISS %:    32.3252   MPKI: 86.6451
L1D LOAD      ACCESS:   22103925  HIT:   13459713  MISS:    8644212  HIT %:    60.8929  MISS %:    39.1071   MPKI: 86.4421
L1D RFO       ACCESS:    4700264  HIT:    4679966  MISS:      20298  HIT %:    99.5682  MISS %:   0.431848   MPKI: 0.20298
L1D PREFETCH  REQUESTED:          0  ISSUED:          0  USEFUL:          0  USELESS:          0
L1D USEFUL LOAD PREFETCHES:          0 PREFETCH ISSUED TO LOWER LEVEL:          0  ACCURACY: -nan
L1D TIMELY PREFETCHES:          0 LATE PREFETCHES: 0 DROPPED PREFETCHES: 0
L1D PREFETCHES SAME FILL-ORIGIN LEVEL: 0 DIFFERENT FILL-ORIGIN LEVEL: 0
L1D AVERAGE MISS LATENCY: 130.936 cycles
L1D RQ	ACCESS:   26290721	FORWARD:          0	MERGED:    3642272	TO_CACHE:   22512864
L1D WQ	ACCESS:    4783662	FORWARD:     135585	MERGED:      53438	TO_CACHE:    4730224

L1D UNIQUE REGIONS ACCESSED: 0
L1D REGIONS CONFLICTS: 0
L1D Cross Page Prefetch Requests: 0
L1D Same Page Prefetch Requests: 0
L1D ROI Sum of L1D PQ occupancy: 0
L1D PREFETCHES PUSHED FROM L2C: 0
L1I TOTAL     ACCESS:   19107656  HIT:   19107656  MISS:          0  HIT %:        100  MISS %:          0   MPKI: 0
L1I LOAD      ACCESS:   19107656  HIT:   19107656  MISS:          0  HIT %:        100  MISS %:          0   MPKI: 0
L1I PREFETCH  REQUESTED:          0  ISSUED:          0  USEFUL:          0  USELESS:          0
L1I USEFUL LOAD PREFETCHES:          0 PREFETCH ISSUED TO LOWER LEVEL:          0  ACCURACY: -nan
L1I TIMELY PREFETCHES:          0 LATE PREFETCHES: 0 DROPPED PREFETCHES: 0
L1I PREFETCHES SAME FILL-ORIGIN LEVEL: 0 DIFFERENT FILL-ORIGIN LEVEL: 0
L1I AVERAGE MISS LATENCY: -nan cycles
L1I RQ	ACCESS:   25597092	FORWARD:          0	MERGED:    6489437	TO_CACHE:   19107655

BTB TOTAL     ACCESS:   19194699  HIT:   19194685  MISS:         14  HIT %:    99.9999  MISS %: 7.29368e-05   MPKI: 0.00014
BTB BRANCH_DIRECT_JUMP	ACCESS:     166019  HIT:     166015  MISS:          4
BTB BRANCH_INDIRECT	ACCESS:          0  HIT:          0  MISS:          0
BTB BRANCH_CONDITIONAL	ACCESS:   19028660  HIT:   19028652  MISS:          8
BTB BRANCH_DIRECT_CALL	ACCESS:         10  HIT:          9  MISS:          1
BTB BRANCH_INDIRECT_CALL	ACCESS:          0  HIT:          0  MISS:          0
BTB BRANCH_RETURN	ACCESS:         10  HIT:          9  MISS:          1
BTB BRANCH_OTHER ACCESS:          0  HIT:          0  MISS:          0

L2C TOTAL     ACCESS:   12524120  HIT:    4922710  MISS:    7601410  HIT %:    39.3058  MISS %:    60.6942   MPKI: 76.0141
L2C LOAD      ACCESS:    8644211  HIT:    1137224  MISS:    7506987  HIT %:    13.1559  MISS %:    86.8441   MPKI: 75.0699
L2C DATA LOAD MPKI: 75.0699
L2C INSTRUCTION LOAD MPKI: 0
L2C RFO       ACCESS:      20298  HIT:        164  MISS:      20134  HIT %:   0.807961  MISS %:     99.192   MPKI: 0.20134
L2C WRITEBACK ACCESS:    2368637  HIT:    2368574  MISS:         63  HIT %:    99.9973  MISS %: 0.00265976   MPKI: 0.00063
L2C LOAD TRANSLATION ACCESS:    1490974  HIT:    1416748  MISS:      74226  HIT %:    95.0216  MISS %:    4.97836   MPKI: 0.74226
L2C PREFETCH  REQUESTED:          0  ISSUED:          0  USEFUL:          0  USELESS:          0
L2C USEFUL LOAD PREFETCHES:          0 PREFETCH ISSUED TO LOWER LEVEL:          0  ACCURACY: -nan
L2C TIMELY PREFETCHES:          0 LATE PREFETCHES: 0 DROPPED PREFETCHES: 0
L2C PREFETCHES SAME FILL-ORIGIN LEVEL: 0 DIFFERENT FILL-ORIGIN LEVEL: 0
L2C AVERAGE MISS LATENCY: 132.778 cycles
L2C RQ	ACCESS:   10155484	FORWARD:          0	MERGED:          0	TO_CACHE:   10155483
L2C WQ	ACCESS:    2368637	FORWARD:          1	MERGED:          0	TO_CACHE:    2368637

L2C Instructions Evicting Data 0
L2C Translations Evicting Data 74168
L2C Data Evicting Data 7452955
L2C Instructions Evicting Instructions 0
L2C Translations Evicting Instructions 0
L2C Data Evicting Instructions 0
L2C Instructions Evicting Translations 0
L2C Translations Evicting Translations 58
L2C Data Evicting Translations 74166
L2C Dense regions hint from L2: 0
PSCL5 TOTAL     ACCESS:    1490701  HIT:    1490701  MISS:          0  HIT %:        100  MISS %:          0   MPKI: 0
PSCL5 LOAD TRANSLATION ACCESS:    1490701  HIT:    1490701  MISS:          0  HIT %:        100  MISS %:          0   MPKI: 0
PSCL5 PREFETCH  REQUESTED:          0  ISSUED:          0  USEFUL:          0  USELESS:          0
PSCL5 USEFUL LOAD PREFETCHES:          0 PREFETCH ISSUED TO LOWER LEVEL:          0  ACCURACY: -nan
PSCL5 TIMELY PREFETCHES:          0 LATE PREFETCHES: 0 DROPPED PREFETCHES: 0
PSCL5 PREFETCHES SAME FILL-ORIGIN LEVEL: 0 DIFFERENT FILL-ORIGIN LEVEL: 0

PSCL4 TOTAL     ACCESS:    1490701  HIT:    1490701  MISS:          0  HIT %:        100  MISS %:          0   MPKI: 0
PSCL4 LOAD TRANSLATION ACCESS:    1490701  HIT:    1490701  MISS:          0  HIT %:        100  MISS %:          0   MPKI: 0
PSCL4 PREFETCH  REQUESTED:          0  ISSUED:          0  USEFUL:          0  USELESS:          0
PSCL4 USEFUL LOAD PREFETCHES:          0 PREFETCH ISSUED TO LOWER LEVEL:          0  ACCURACY: -nan
PSCL4 TIMELY PREFETCHES:          0 LATE PREFETCHES: 0 DROPPED PREFETCHES: 0
PSCL4 PREFETCHES SAME FILL-ORIGIN LEVEL: 0 DIFFERENT FILL-ORIGIN LEVEL: 0

PSCL3 TOTAL     ACCESS:    1490701  HIT:    1490701  MISS:          0  HIT %:        100  MISS %:          0   MPKI: 0
PSCL3 LOAD TRANSLATION ACCESS:    1490701  HIT:    1490701  MISS:          0  HIT %:        100  MISS %:          0   MPKI: 0
PSCL3 PREFETCH  REQUESTED:          0  ISSUED:          0  USEFUL:          0  USELESS:          0
PSCL3 USEFUL LOAD PREFETCHES:          0 PREFETCH ISSUED TO LOWER LEVEL:          0  ACCURACY: -nan
PSCL3 TIMELY PREFETCHES:          0 LATE PREFETCHES: 0 DROPPED PREFETCHES: 0
PSCL3 PREFETCHES SAME FILL-ORIGIN LEVEL: 0 DIFFERENT FILL-ORIGIN LEVEL: 0

PSCL2 TOTAL     ACCESS:    1490701  HIT:    1490417  MISS:        284  HIT %:    99.9809  MISS %:  0.0190514   MPKI: 0.00284
PSCL2 LOAD TRANSLATION ACCESS:    1490701  HIT:    1490417  MISS:        284  HIT %:    99.9809  MISS %:  0.0190514   MPKI: 0.00284
PSCL2 PREFETCH  REQUESTED:          0  ISSUED:          0  USEFUL:          0  USELESS:          0
PSCL2 USEFUL LOAD PREFETCHES:          0 PREFETCH ISSUED TO LOWER LEVEL:          0  ACCURACY: -nan
PSCL2 TIMELY PREFETCHES:          0 LATE PREFETCHES: 0 DROPPED PREFETCHES: 0
PSCL2 PREFETCHES SAME FILL-ORIGIN LEVEL: 0 DIFFERENT FILL-ORIGIN LEVEL: 0

LLC TOTAL     ACCESS:    9901368  HIT:    5096381  MISS:    4804987  HIT %:    51.4715  MISS %:    48.5285   MPKI: 48.0499
LLC LOAD      ACCESS:    7506986  HIT:    2742963  MISS:    4764023  HIT %:    36.5388  MISS %:    63.4612   MPKI: 47.6402
LLC RFO       ACCESS:      20134  HIT:        452  MISS:      19682  HIT %:    2.24496  MISS %:     97.755   MPKI: 0.19682
LLC WRITEBACK ACCESS:    2300022  HIT:    2299847  MISS:        175  HIT %:    99.9924  MISS %: 0.00760862   MPKI: 0.00175
LLC LOAD TRANSLATION ACCESS:      74226  HIT:      53119  MISS:      21107  HIT %:    71.5639  MISS %:    28.4361   MPKI: 0.21107
LLC PREFETCH  REQUESTED:          0  ISSUED:          0  USEFUL:          0  USELESS:          0
LLC USEFUL LOAD PREFETCHES:          0 PREFETCH ISSUED TO LOWER LEVEL:          0  ACCURACY: -nan
LLC TIMELY PREFETCHES:          0 LATE PREFETCHES: 0 DROPPED PREFETCHES: 0
LLC PREFETCHES SAME FILL-ORIGIN LEVEL: 0 DIFFERENT FILL-ORIGIN LEVEL: 0
LLC AVERAGE MISS LATENCY: 162.555 cycles
LLC RQ	ACCESS:    7601347	FORWARD:          0	MERGED:          0	TO_CACHE:    7601346
LLC WQ	ACCESS:    2300023	FORWARD:          1	MERGED:          0	TO_CACHE:    2300023

LLC Dense regions hint to LLC: 0

RAW hits: 254526
Loads Generated: 26545247
Loads sent to L1D: 26290721
Stores Generated: 4783660
Stores sent to L1D: 4783662
Major fault: 0 Minor fault: 21935
Allocated PAGES: 21935

DRAM Statistics
 CHANNEL 0
 RQ ROW_BUFFER_HIT:     802767  ROW_BUFFER_MISS:    4002029
 DBUS_CONGESTED:       1775
 WQ ROW_BUFFER_HIT:    1120708  ROW_BUFFER_MISS:     776737  FULL:          0

 AVG_CONGESTED_CYCLE: 4
 All warmup complete: 2
Channel 0 Bank busy for read cycles: 0
Channel 0 Bank busy for write cycles: 0
Channel 0
Rank 0
0banks busy for read cycles: 99182471
0banks busy for write cycles: 597236
1banks busy for read cycles: 259722233
1banks busy for write cycles: 119860944
2banks busy for read cycles: 123647859
2banks busy for write cycles: 74173589
3banks busy for read cycles: 30698675
3banks busy for write cycles: 29700492
4banks busy for read cycles: 7242158
4banks busy for write cycles: 8826997
5banks busy for read cycles: 1599340
5banks busy for write cycles: 2060530
6banks busy for read cycles: 379001
6banks busy for write cycles: 402241
7banks busy for read cycles: 94611
7banks busy for write cycles: 72829
8banks busy for read cycles: 203189
8banks busy for write cycles: 202495

CPU 0 Branch Prediction Accuracy: 85.5613% MPKI: 27.7293 Average ROB Occupancy at Mispredict: 23.3983
Branch types
NOT_BRANCH: 80794859 80.7949%
BRANCH_DIRECT_JUMP: 166019 0.166019%
BRANCH_INDIRECT: 0 0%
BRANCH_CONDITIONAL: 19038842 19.0388%
BRANCH_DIRECT_CALL: 10 1e-05%
BRANCH_INDIRECT_CALL: 0 0%
BRANCH_RETURN: 10 1e-05%
BRANCH_OTHER: 0 0%

DRAM PAGES: 1048576
Allocated PAGES: 21935
