
*** ChampSim Multicore Out-of-Order Simulator ***

Warmup Instructions: 50000000
Simulation Instructions: 100000000
Number of CPUs: 1
LLC sets: 2048
LLC ways: 16
Off-chip DRAM Size: 4096 MB Channels: 1 Width: 64-bit Data Rate: 6400 MT/s
CPU 0 runs ./traces/GAP/bc-12.trace.gz
.gz
CPU 0 Bimodal branch predictor
BTB has LRU replacement policy
ITLB has LRU replacement policy
DTLB has LRU replacement policy
STLB has LRU replacement policy
L1I has LRU replacement policy
Ideal ISB Prefetching
L1D has LRU replacement policy
L2C has LRU replacement policy
LLC has LRU replacement policy
Heartbeat CPU 0 instructions: 10000002 cycles: 3633811 heartbeat IPC: 2.75193 cumulative IPC: 2.75193 (Simulation time: 0 hr 1 min 51 sec) 
Heartbeat CPU 0 instructions: 20000000 cycles: 6766817 heartbeat IPC: 3.19182 cumulative IPC: 2.9556 (Simulation time: 0 hr 4 min 38 sec) 
Heartbeat CPU 0 instructions: 30000003 cycles: 9892029 heartbeat IPC: 3.19978 cumulative IPC: 3.03275 (Simulation time: 0 hr 7 min 40 sec) 
Heartbeat CPU 0 instructions: 40000000 cycles: 13010418 heartbeat IPC: 3.20678 cumulative IPC: 3.07446 (Simulation time: 0 hr 10 min 45 sec) 
Heartbeat CPU 0 instructions: 50000001 cycles: 16125810 heartbeat IPC: 3.20987 cumulative IPC: 3.10062 (Simulation time: 0 hr 13 min 47 sec) 

Warmup complete CPU 0 instructions: 50000001 cycles: 16125810 (Simulation time: 0 hr 13 min 47 sec) 

Heartbeat CPU 0 instructions: 60000000 cycles: 93077678 heartbeat IPC: 0.129951 cumulative IPC: 0.129951 (Simulation time: 0 hr 17 min 30 sec) 
Heartbeat CPU 0 instructions: 70000000 cycles: 170786505 heartbeat IPC: 0.128686 cumulative IPC: 0.129315 (Simulation time: 0 hr 21 min 17 sec) 
Heartbeat CPU 0 instructions: 80000000 cycles: 248705933 heartbeat IPC: 0.128338 cumulative IPC: 0.128988 (Simulation time: 0 hr 25 min 14 sec) 
Heartbeat CPU 0 instructions: 90000000 cycles: 326767257 heartbeat IPC: 0.128104 cumulative IPC: 0.128766 (Simulation time: 0 hr 29 min 10 sec) 
Heartbeat CPU 0 instructions: 100000000 cycles: 404993131 heartbeat IPC: 0.127835 cumulative IPC: 0.128579 (Simulation time: 0 hr 33 min 4 sec) 
Heartbeat CPU 0 instructions: 110000002 cycles: 483060252 heartbeat IPC: 0.128095 cumulative IPC: 0.128498 (Simulation time: 0 hr 37 min 1 sec) 
Heartbeat CPU 0 instructions: 120000000 cycles: 560208876 heartbeat IPC: 0.12962 cumulative IPC: 0.128657 (Simulation time: 0 hr 40 min 57 sec) 
Heartbeat CPU 0 instructions: 130000000 cycles: 638226778 heartbeat IPC: 0.128176 cumulative IPC: 0.128596 (Simulation time: 0 hr 45 min 1 sec) 
Heartbeat CPU 0 instructions: 140000000 cycles: 715283014 heartbeat IPC: 0.129775 cumulative IPC: 0.128726 (Simulation time: 0 hr 49 min 4 sec) 
Heartbeat CPU 0 instructions: 150000000 cycles: 793236879 heartbeat IPC: 0.128281 cumulative IPC: 0.128682 (Simulation time: 0 hr 53 min 13 sec) 
Finished CPU 0 instructions: 100000003 cycles: 777111070 cumulative IPC: 0.128682 (Simulation time: 0 hr 53 min 13 sec) 

ChampSim completed all CPUs

Region of Interest Statistics

CPU 0 cumulative IPC: 0.128682 instructions: 100000003 cycles: 777111070
ITLB TOTAL     ACCESS:   16305913  HIT:   16305913  MISS:          0  HIT %:        100  MISS %:          0   MPKI: 0
ITLB LOAD TRANSLATION ACCESS:   16305913  HIT:   16305913  MISS:          0  HIT %:        100  MISS %:          0   MPKI: 0
ITLB PREFETCH  REQUESTED:          0  ISSUED:          0  USEFUL:          0  USELESS:          0
ITLB USEFUL LOAD PREFETCHES:          0 PREFETCH ISSUED TO LOWER LEVEL:          0  ACCURACY: -nan
ITLB TIMELY PREFETCHES:          0 LATE PREFETCHES: 0 DROPPED PREFETCHES: 0
ITLB PREFETCHES SAME FILL-ORIGIN LEVEL: 0 DIFFERENT FILL-ORIGIN LEVEL: 0
ITLB AVERAGE MISS LATENCY: -nan cycles
ITLB RQ	ACCESS:   16785857	FORWARD:          0	MERGED:     479944	TO_CACHE:   16305913

DTLB TOTAL     ACCESS:   28464320  HIT:   24742523  MISS:    3721797  HIT %:    86.9247  MISS %:    13.0753   MPKI: 37.218
DTLB LOAD TRANSLATION ACCESS:   28464320  HIT:   24742523  MISS:    3721797  HIT %:    86.9247  MISS %:    13.0753   MPKI: 37.218
DTLB PREFETCH  REQUESTED:          0  ISSUED:          0  USEFUL:          0  USELESS:          0
DTLB USEFUL LOAD PREFETCHES:          0 PREFETCH ISSUED TO LOWER LEVEL:          0  ACCURACY: -nan
DTLB TIMELY PREFETCHES:          0 LATE PREFETCHES: 0 DROPPED PREFETCHES: 0
DTLB PREFETCHES SAME FILL-ORIGIN LEVEL: 0 DIFFERENT FILL-ORIGIN LEVEL: 0
DTLB AVERAGE MISS LATENCY: 15.981 cycles
DTLB RQ	ACCESS:   31616197	FORWARD:          0	MERGED:    3045553	TO_CACHE:   28570644

STLB TOTAL     ACCESS:   10152270  HIT:    7631990  MISS:    2520280  HIT %:    75.1752  MISS %:    24.8248   MPKI: 25.2028
STLB LOAD TRANSLATION ACCESS:    3721797  HIT:    2742357  MISS:     979440  HIT %:    73.6837  MISS %:    26.3163   MPKI: 9.7944
STLB TRANSLATION FROM L1D PREFETCHER ACCESS:    6430473  HIT:    4889633  MISS:    1540840  HIT %:    76.0385  MISS %:    23.9615   MPKI: 15.4084
STLB PREFETCH  REQUESTED:          0  ISSUED:          0  USEFUL:    1349454  USELESS:     191412
STLB USEFUL LOAD PREFETCHES:    1349454 PREFETCH ISSUED TO LOWER LEVEL:          0  ACCURACY: inf
STLB TIMELY PREFETCHES:    1349454 LATE PREFETCHES: 9868 DROPPED PREFETCHES: 0
STLB PREFETCHES SAME FILL-ORIGIN LEVEL: 0 DIFFERENT FILL-ORIGIN LEVEL: 0
STLB AVERAGE MISS LATENCY: 31.2401 cycles
STLB RQ	ACCESS:   12344480	FORWARD:          0	MERGED:    2150800	TO_CACHE:   10193680

STLB Hit, L1D data hit: 0
STLB Hit, L2C data hit: 0
STLB Hit, LLC data hit: 0
STLB Hit, LLC data miss: 0
STLB STLB hints to L2: 0
L1D TOTAL     ACCESS:   39814336  HIT:   23373797  MISS:   16440539  HIT %:     58.707  MISS %:     41.293   MPKI: 164.405
L1D LOAD      ACCESS:   25739562  HIT:   17740156  MISS:    7999406  HIT %:    68.9217  MISS %:    31.0783   MPKI: 79.9941
L1D RFO       ACCESS:    5562293  HIT:    5542107  MISS:      20186  HIT %:    99.6371  MISS %:   0.362908   MPKI: 0.20186
L1D PREFETCH  ACCESS:    8512481  HIT:      91534  MISS:    8420947  HIT %:    1.07529  MISS %:    98.9247   MPKI: 84.2095
AGUS PREFETCH L1 MISS: 0
L1D PREFETCH  REQUESTED:   17619320  ISSUED:   17315996  USEFUL:     567374  USELESS:    7853572
L1D USEFUL LOAD PREFETCHES:     567374 PREFETCH ISSUED TO LOWER LEVEL:    8455030  ACCURACY: 6.71049
L1D TIMELY PREFETCHES:     567374 LATE PREFETCHES: 34087 DROPPED PREFETCHES: 0
L1D PREFETCHES SAME FILL-ORIGIN LEVEL: 8455030 DIFFERENT FILL-ORIGIN LEVEL: 0
L1D AVERAGE MISS LATENCY: 136.115 cycles
L1D RQ	ACCESS:   27463600	FORWARD:          0	MERGED:    1412332	TO_CACHE:   26026464
L1D WQ	ACCESS:    5743777	FORWARD:      24804	MERGED:     154044	TO_CACHE:    5589733
L1D PQ	ACCESS:    8693313	FORWARD:          0	MERGED:      70630	TO_CACHE:    8622683

L1D UNIQUE REGIONS ACCESSED: 0
L1D REGIONS CONFLICTS: 0
L1D Cross Page Prefetch Requests: 9012944
L1D Same Page Prefetch Requests: 3689443
L1D ROI Sum of L1D PQ occupancy: 217580124
L1D PREFETCHES PUSHED FROM L2C: 0
L1I TOTAL     ACCESS:   16785857  HIT:   16785857  MISS:          0  HIT %:        100  MISS %:          0   MPKI: 0
L1I LOAD      ACCESS:   16785857  HIT:   16785857  MISS:          0  HIT %:        100  MISS %:          0   MPKI: 0
L1I PREFETCH  REQUESTED:          0  ISSUED:          0  USEFUL:          0  USELESS:          0
L1I USEFUL LOAD PREFETCHES:          0 PREFETCH ISSUED TO LOWER LEVEL:          0  ACCURACY: -nan
L1I TIMELY PREFETCHES:          0 LATE PREFETCHES: 0 DROPPED PREFETCHES: 0
L1I PREFETCHES SAME FILL-ORIGIN LEVEL: 0 DIFFERENT FILL-ORIGIN LEVEL: 0
L1I AVERAGE MISS LATENCY: -nan cycles
L1I RQ	ACCESS:   23553561	FORWARD:          0	MERGED:    6767704	TO_CACHE:   16785857

BTB TOTAL     ACCESS:   17480827  HIT:   17480813  MISS:         14  HIT %:    99.9999  MISS %: 8.00877e-05   MPKI: 0.00014
BTB BRANCH_DIRECT_JUMP	ACCESS:     167909  HIT:     167905  MISS:          4
BTB BRANCH_INDIRECT	ACCESS:          0  HIT:          0  MISS:          0
BTB BRANCH_CONDITIONAL	ACCESS:   17312900  HIT:   17312892  MISS:          8
BTB BRANCH_DIRECT_CALL	ACCESS:          9  HIT:          8  MISS:          1
BTB BRANCH_INDIRECT_CALL	ACCESS:          0  HIT:          0  MISS:          0
BTB BRANCH_RETURN	ACCESS:          9  HIT:          8  MISS:          1
BTB BRANCH_OTHER ACCESS:          0  HIT:          0  MISS:          0

L2C TOTAL     ACCESS:   21793281  HIT:    6833951  MISS:   14959330  HIT %:    31.3581  MISS %:    68.6419   MPKI: 149.593
L2C LOAD      ACCESS:    7965319  HIT:     631799  MISS:    7333520  HIT %:    7.93187  MISS %:    92.0681   MPKI: 73.3352
L2C DATA LOAD MPKI: 73.3352
L2C INSTRUCTION LOAD MPKI: 0
L2C RFO       ACCESS:      20185  HIT:        885  MISS:      19300  HIT %:    4.38444  MISS %:    95.6156   MPKI: 0.193
L2C PREFETCH  ACCESS:    8455032  HIT:    1028026  MISS:    7427006  HIT %:    12.1587  MISS %:    87.8413   MPKI: 74.2701
AGUS PREFETCH L1 MISS: 0
L2C DATA PREFETCH MPKI: 74.2701
L2C INSTRUCTION PREFETCH MPKI: 0
L2C WRITEBACK ACCESS:    2832437  HIT:    2832361  MISS:         76  HIT %:    99.9973  MISS %:  0.0026832   MPKI: 0.00076
L2C LOAD TRANSLATION ACCESS:     969595  HIT:     926408  MISS:      43187  HIT %:    95.5459  MISS %:    4.45413   MPKI: 0.43187
L2C TRANSLATION FROM L1D PREFETCHER ACCESS:    1550713  HIT:    1414472  MISS:     136241  HIT %:    91.2143  MISS %:     8.7857   MPKI: 1.36241
L2C PREFETCH  REQUESTED:          0  ISSUED:          0  USEFUL:     325702  USELESS:    7237304
L2C USEFUL LOAD PREFETCHES:     325702 PREFETCH ISSUED TO LOWER LEVEL:    7427006  ACCURACY: 4.38537
L2C TIMELY PREFETCHES:     325702 LATE PREFETCHES: 0 DROPPED PREFETCHES: 0
L2C PREFETCHES SAME FILL-ORIGIN LEVEL: 0 DIFFERENT FILL-ORIGIN LEVEL: 0
L2C AVERAGE MISS LATENCY: 133.466 cycles
L2C RQ	ACCESS:   10505813	FORWARD:          0	MERGED:          0	TO_CACHE:   10505812
L2C WQ	ACCESS:    2832437	FORWARD:          2	MERGED:          0	TO_CACHE:    2832437
L2C PQ	ACCESS:    8455030	FORWARD:          0	MERGED:          0	TO_CACHE:    8455029

L2C Instructions Evicting Data 0
L2C Translations Evicting Data 179275
L2C Data Evicting Data 14600528
L2C Instructions Evicting Instructions 0
L2C Translations Evicting Instructions 0
L2C Data Evicting Instructions 0
L2C Instructions Evicting Translations 0
L2C Translations Evicting Translations 153
L2C Data Evicting Translations 179298
L2C Dense regions hint from L2: 0
PSCL5 TOTAL     ACCESS:    2520280  HIT:    2520280  MISS:          0  HIT %:        100  MISS %:          0   MPKI: 0
PSCL5 LOAD TRANSLATION ACCESS:     969572  HIT:     969572  MISS:          0  HIT %:        100  MISS %:          0   MPKI: 0
PSCL5 TRANSLATION FROM L1D PREFETCHER ACCESS:    1550708  HIT:    1550708  MISS:          0  HIT %:        100  MISS %:          0   MPKI: 0
PSCL5 PREFETCH  REQUESTED:          0  ISSUED:          0  USEFUL:          0  USELESS:          0
PSCL5 USEFUL LOAD PREFETCHES:          0 PREFETCH ISSUED TO LOWER LEVEL:          0  ACCURACY: -nan
PSCL5 TIMELY PREFETCHES:          0 LATE PREFETCHES: 0 DROPPED PREFETCHES: 0
PSCL5 PREFETCHES SAME FILL-ORIGIN LEVEL: 0 DIFFERENT FILL-ORIGIN LEVEL: 0

PSCL4 TOTAL     ACCESS:    2520280  HIT:    2520280  MISS:          0  HIT %:        100  MISS %:          0   MPKI: 0
PSCL4 LOAD TRANSLATION ACCESS:     969572  HIT:     969572  MISS:          0  HIT %:        100  MISS %:          0   MPKI: 0
PSCL4 TRANSLATION FROM L1D PREFETCHER ACCESS:    1550708  HIT:    1550708  MISS:          0  HIT %:        100  MISS %:          0   MPKI: 0
PSCL4 PREFETCH  REQUESTED:          0  ISSUED:          0  USEFUL:          0  USELESS:          0
PSCL4 USEFUL LOAD PREFETCHES:          0 PREFETCH ISSUED TO LOWER LEVEL:          0  ACCURACY: -nan
PSCL4 TIMELY PREFETCHES:          0 LATE PREFETCHES: 0 DROPPED PREFETCHES: 0
PSCL4 PREFETCHES SAME FILL-ORIGIN LEVEL: 0 DIFFERENT FILL-ORIGIN LEVEL: 0

PSCL3 TOTAL     ACCESS:    2520280  HIT:    2520280  MISS:          0  HIT %:        100  MISS %:          0   MPKI: 0
PSCL3 LOAD TRANSLATION ACCESS:     969572  HIT:     969572  MISS:          0  HIT %:        100  MISS %:          0   MPKI: 0
PSCL3 TRANSLATION FROM L1D PREFETCHER ACCESS:    1550708  HIT:    1550708  MISS:          0  HIT %:        100  MISS %:          0   MPKI: 0
PSCL3 PREFETCH  REQUESTED:          0  ISSUED:          0  USEFUL:          0  USELESS:          0
PSCL3 USEFUL LOAD PREFETCHES:          0 PREFETCH ISSUED TO LOWER LEVEL:          0  ACCURACY: -nan
PSCL3 TIMELY PREFETCHES:          0 LATE PREFETCHES: 0 DROPPED PREFETCHES: 0
PSCL3 PREFETCHES SAME FILL-ORIGIN LEVEL: 0 DIFFERENT FILL-ORIGIN LEVEL: 0

PSCL2 TOTAL     ACCESS:    2520280  HIT:    2520225  MISS:         55  HIT %:    99.9978  MISS %:  0.0021823   MPKI: 0.00055
PSCL2 LOAD TRANSLATION ACCESS:     969577  HIT:     969522  MISS:         55  HIT %:    99.9943  MISS %: 0.00567258   MPKI: 0.00055
PSCL2 TRANSLATION FROM L1D PREFETCHER ACCESS:    1550703  HIT:    1550703  MISS:          0  HIT %:        100  MISS %:          0   MPKI: 0
PSCL2 PREFETCH  REQUESTED:          0  ISSUED:          0  USEFUL:          0  USELESS:          0
PSCL2 USEFUL LOAD PREFETCHES:          0 PREFETCH ISSUED TO LOWER LEVEL:          0  ACCURACY: -nan
PSCL2 TIMELY PREFETCHES:          0 LATE PREFETCHES: 0 DROPPED PREFETCHES: 0
PSCL2 PREFETCHES SAME FILL-ORIGIN LEVEL: 0 DIFFERENT FILL-ORIGIN LEVEL: 0

LLC TOTAL     ACCESS:   17748498  HIT:    9007817  MISS:    8740681  HIT %:    50.7526  MISS %:    49.2474   MPKI: 87.4068
LLC LOAD      ACCESS:    7333519  HIT:    2374679  MISS:    4958840  HIT %:    32.3812  MISS %:    67.6188   MPKI: 49.5884
LLC RFO       ACCESS:      19300  HIT:        206  MISS:      19094  HIT %:    1.06736  MISS %:    98.9326   MPKI: 0.19094
LLC PREFETCH  ACCESS:    7426996  HIT:    3689343  MISS:    3737653  HIT %:    49.6748  MISS %:    50.3252   MPKI: 37.3765
AGUS PREFETCH L1 MISS: 0
LLC WRITEBACK ACCESS:    2789255  HIT:    2789199  MISS:         56  HIT %:     99.998  MISS %:  0.0020077   MPKI: 0.00056
LLC LOAD TRANSLATION ACCESS:      43187  HIT:      36156  MISS:       7031  HIT %:    83.7196  MISS %:    16.2804   MPKI: 0.07031
LLC TRANSLATION FROM L1D PREFETCHER ACCESS:     136241  HIT:     118234  MISS:      18007  HIT %:     86.783  MISS %:     13.217   MPKI: 0.18007
LLC PREFETCH  REQUESTED:          0  ISSUED:          0  USEFUL:     529466  USELESS:    3226781
LLC USEFUL LOAD PREFETCHES:     529466 PREFETCH ISSUED TO LOWER LEVEL:    3737654  ACCURACY: 14.1657
LLC TIMELY PREFETCHES:     529466 LATE PREFETCHES: 0 DROPPED PREFETCHES: 0
LLC PREFETCHES SAME FILL-ORIGIN LEVEL: 0 DIFFERENT FILL-ORIGIN LEVEL: 0
LLC AVERAGE MISS LATENCY: 177.04 cycles
LLC RQ	ACCESS:    7532248	FORWARD:          0	MERGED:          0	TO_CACHE:    7532247
LLC WQ	ACCESS:    2789256	FORWARD:         11	MERGED:          0	TO_CACHE:    2789256
LLC PQ	ACCESS:    7427006	FORWARD:          0	MERGED:          0	TO_CACHE:    7426996

LLC Dense regions hint to LLC: 0

RAW hits: 829808
Loads Generated: 28293408
Loads sent to L1D: 27463600
Stores Generated: 5743774
Stores sent to L1D: 5743777
Major fault: 0 Minor fault: 20661
Allocated PAGES: 20661
Prefetcher final stats
Training Unit Size: 116
Addr table size: 678529 678529


Triggers: 11739966
No Prediction: 1678771 14.2996
Stream end: 9884992
No translation: 1410212519 12012.1
Predictions: 12702387 108.198


Stream divergence: 2742396 23.3595
Stream divergence -- new stream: 0

DRAM Statistics
 CHANNEL 0
 RQ ROW_BUFFER_HIT:    1883927  ROW_BUFFER_MISS:    6856349
 DBUS_CONGESTED:       5558
 WQ ROW_BUFFER_HIT:    1334826  ROW_BUFFER_MISS:    1064450  FULL:          0

 AVG_CONGESTED_CYCLE: 4
 All warmup complete: 2
Channel 0 Bank busy for read cycles: 0
Channel 0 Bank busy for write cycles: 0
Channel 0
Rank 0
0banks busy for read cycles: 41572735
0banks busy for write cycles: 283568
1banks busy for read cycles: 215930702
1banks busy for write cycles: 54165029
2banks busy for read cycles: 134222680
2banks busy for write cycles: 51208935
3banks busy for read cycles: 79846134
3banks busy for write cycles: 41796265
4banks busy for read cycles: 45131156
4banks busy for write cycles: 30882749
5banks busy for read cycles: 23492242
5banks busy for write cycles: 20665522
6banks busy for read cycles: 10902709
6banks busy for write cycles: 12534616
7banks busy for read cycles: 3990976
7banks busy for write cycles: 6667690
8banks busy for read cycles: 949153
8banks busy for write cycles: 2868210

CPU 0 Branch Prediction Accuracy: 83.1166% MPKI: 29.55 Average ROB Occupancy at Mispredict: 23.001
Branch types
NOT_BRANCH: 82497332 82.4973%
BRANCH_DIRECT_JUMP: 167909 0.167909%
BRANCH_INDIRECT: 0 0%
BRANCH_CONDITIONAL: 17334495 17.3345%
BRANCH_DIRECT_CALL: 9 9e-06%
BRANCH_INDIRECT_CALL: 0 0%
BRANCH_RETURN: 9 9e-06%
BRANCH_OTHER: 0 0%

DRAM PAGES: 1048576
Allocated PAGES: 20661
