
*** ChampSim Multicore Out-of-Order Simulator ***

Warmup Instructions: 50000000
Simulation Instructions: 100000000
Number of CPUs: 1
LLC sets: 2048
LLC ways: 16
Off-chip DRAM Size: 4096 MB Channels: 1 Width: 64-bit Data Rate: 6400 MT/s
CPU 0 runs ./traces/GAP/bc-3.trace.gz
.gz
CPU 0 Bimodal branch predictor
BTB has LRU replacement policy
ITLB has LRU replacement policy
DTLB has LRU replacement policy
STLB has LRU replacement policy
L1I has LRU replacement policy
Ideal ISB Prefetching
L1D has LRU replacement policy
L2C has LRU replacement policy
LLC has LRU replacement policy
Heartbeat CPU 0 instructions: 10000001 cycles: 3633254 heartbeat IPC: 2.75235 cumulative IPC: 2.75235 (Simulation time: 0 hr 1 min 12 sec) 
Heartbeat CPU 0 instructions: 20000000 cycles: 6650427 heartbeat IPC: 3.31436 cumulative IPC: 3.00733 (Simulation time: 0 hr 3 min 30 sec) 
Heartbeat CPU 0 instructions: 30000000 cycles: 9650413 heartbeat IPC: 3.33335 cumulative IPC: 3.10868 (Simulation time: 0 hr 6 min 31 sec) 
Heartbeat CPU 0 instructions: 40000000 cycles: 12645645 heartbeat IPC: 3.33864 cumulative IPC: 3.16314 (Simulation time: 0 hr 9 min 45 sec) 
Heartbeat CPU 0 instructions: 50000003 cycles: 15635411 heartbeat IPC: 3.34474 cumulative IPC: 3.19787 (Simulation time: 0 hr 13 min 4 sec) 

Warmup complete CPU 0 instructions: 50000003 cycles: 15635411 (Simulation time: 0 hr 13 min 4 sec) 

Heartbeat CPU 0 instructions: 60000000 cycles: 82297764 heartbeat IPC: 0.15001 cumulative IPC: 0.15001 (Simulation time: 0 hr 16 min 56 sec) 
Heartbeat CPU 0 instructions: 70000000 cycles: 149022070 heartbeat IPC: 0.14987 cumulative IPC: 0.14994 (Simulation time: 0 hr 20 min 52 sec) 
Heartbeat CPU 0 instructions: 80000000 cycles: 215624878 heartbeat IPC: 0.150144 cumulative IPC: 0.150008 (Simulation time: 0 hr 24 min 48 sec) 
Heartbeat CPU 0 instructions: 90000000 cycles: 282201451 heartbeat IPC: 0.150203 cumulative IPC: 0.150057 (Simulation time: 0 hr 28 min 46 sec) 
Heartbeat CPU 0 instructions: 100000000 cycles: 348263098 heartbeat IPC: 0.151374 cumulative IPC: 0.150318 (Simulation time: 0 hr 32 min 50 sec) 
Heartbeat CPU 0 instructions: 110000002 cycles: 414618310 heartbeat IPC: 0.150704 cumulative IPC: 0.150382 (Simulation time: 0 hr 36 min 52 sec) 
Heartbeat CPU 0 instructions: 120000000 cycles: 480297981 heartbeat IPC: 0.152254 cumulative IPC: 0.150647 (Simulation time: 0 hr 41 min 3 sec) 
Heartbeat CPU 0 instructions: 130000003 cycles: 546603263 heartbeat IPC: 0.150818 cumulative IPC: 0.150668 (Simulation time: 0 hr 45 min 11 sec) 
Heartbeat CPU 0 instructions: 140000000 cycles: 612767739 heartbeat IPC: 0.151138 cumulative IPC: 0.15072 (Simulation time: 0 hr 49 min 19 sec) 
Heartbeat CPU 0 instructions: 150000000 cycles: 679025096 heartbeat IPC: 0.150927 cumulative IPC: 0.150741 (Simulation time: 0 hr 53 min 29 sec) 
Finished CPU 0 instructions: 100000001 cycles: 663389721 cumulative IPC: 0.150741 (Simulation time: 0 hr 53 min 29 sec) 

ChampSim completed all CPUs

Region of Interest Statistics

CPU 0 cumulative IPC: 0.150741 instructions: 100000001 cycles: 663389721
ITLB TOTAL     ACCESS:   20645021  HIT:   20645021  MISS:          0  HIT %:        100  MISS %:          0   MPKI: 0
ITLB LOAD TRANSLATION ACCESS:   20645021  HIT:   20645021  MISS:          0  HIT %:        100  MISS %:          0   MPKI: 0
ITLB PREFETCH  REQUESTED:          0  ISSUED:          0  USEFUL:          0  USELESS:          0
ITLB USEFUL LOAD PREFETCHES:          0 PREFETCH ISSUED TO LOWER LEVEL:          0  ACCURACY: -nan
ITLB TIMELY PREFETCHES:          0 LATE PREFETCHES: 0 DROPPED PREFETCHES: 0
ITLB PREFETCHES SAME FILL-ORIGIN LEVEL: 0 DIFFERENT FILL-ORIGIN LEVEL: 0
ITLB AVERAGE MISS LATENCY: -nan cycles
ITLB RQ	ACCESS:   20891443	FORWARD:          0	MERGED:     246423	TO_CACHE:   20645020

DTLB TOTAL     ACCESS:   22446135  HIT:   18592204  MISS:    3853931  HIT %:    82.8303  MISS %:    17.1697   MPKI: 38.5393
DTLB LOAD TRANSLATION ACCESS:   22446135  HIT:   18592204  MISS:    3853931  HIT %:    82.8303  MISS %:    17.1697   MPKI: 38.5393
DTLB PREFETCH  REQUESTED:          0  ISSUED:          0  USEFUL:          0  USELESS:          0
DTLB USEFUL LOAD PREFETCHES:          0 PREFETCH ISSUED TO LOWER LEVEL:          0  ACCURACY: -nan
DTLB TIMELY PREFETCHES:          0 LATE PREFETCHES: 0 DROPPED PREFETCHES: 0
DTLB PREFETCHES SAME FILL-ORIGIN LEVEL: 0 DIFFERENT FILL-ORIGIN LEVEL: 0
DTLB AVERAGE MISS LATENCY: 14.9974 cycles
DTLB RQ	ACCESS:   23962321	FORWARD:          0	MERGED:    1406083	TO_CACHE:   22556238

STLB TOTAL     ACCESS:   10202027  HIT:    8167458  MISS:    2034569  HIT %:    80.0572  MISS %:    19.9428   MPKI: 20.3457
STLB LOAD TRANSLATION ACCESS:    3853930  HIT:    3064854  MISS:     789076  HIT %:    79.5254  MISS %:    20.4746   MPKI: 7.89076
STLB TRANSLATION FROM L1D PREFETCHER ACCESS:    6348097  HIT:    5102604  MISS:    1245493  HIT %:    80.3801  MISS %:    19.6199   MPKI: 12.4549
STLB PREFETCH  REQUESTED:          0  ISSUED:          0  USEFUL:    1049274  USELESS:     196335
STLB USEFUL LOAD PREFETCHES:    1049274 PREFETCH ISSUED TO LOWER LEVEL:          0  ACCURACY: inf
STLB TIMELY PREFETCHES:    1049274 LATE PREFETCHES: 9360 DROPPED PREFETCHES: 0
STLB PREFETCHES SAME FILL-ORIGIN LEVEL: 0 DIFFERENT FILL-ORIGIN LEVEL: 0
STLB AVERAGE MISS LATENCY: 32.5791 cycles
STLB RQ	ACCESS:   12562614	FORWARD:          0	MERGED:    2314824	TO_CACHE:   10247790

STLB Hit, L1D data hit: 0
STLB Hit, L2C data hit: 0
STLB Hit, LLC data hit: 0
STLB Hit, LLC data miss: 0
STLB STLB hints to L2: 0
L1D TOTAL     ACCESS:   31788483  HIT:   15019255  MISS:   16769228  HIT %:    47.2475  MISS %:    52.7525   MPKI: 167.692
L1D LOAD      ACCESS:   19742773  HIT:   11423761  MISS:    8319012  HIT %:     57.863  MISS %:     42.137   MPKI: 83.1901
L1D RFO       ACCESS:    3508730  HIT:    3487409  MISS:      21321  HIT %:    99.3923  MISS %:   0.607656   MPKI: 0.21321
L1D PREFETCH  ACCESS:    8536980  HIT:     108085  MISS:    8428895  HIT %:    1.26608  MISS %:    98.7339   MPKI: 84.2889
AGUS PREFETCH L1 MISS: 0
L1D PREFETCH  REQUESTED:   18037660  ISSUED:   17524347  USEFUL:     527338  USELESS:    7901607
L1D USEFUL LOAD PREFETCHES:     527338 PREFETCH ISSUED TO LOWER LEVEL:    8475536  ACCURACY: 6.22188
L1D TIMELY PREFETCHES:     527338 LATE PREFETCHES: 46650 DROPPED PREFETCHES: 0
L1D PREFETCHES SAME FILL-ORIGIN LEVEL: 8475536 DIFFERENT FILL-ORIGIN LEVEL: 0
L1D AVERAGE MISS LATENCY: 124.223 cycles
L1D RQ	ACCESS:   24212115	FORWARD:          0	MERGED:    3744915	TO_CACHE:   20423802
L1D WQ	ACCESS:    3549972	FORWARD:      43399	MERGED:      11453	TO_CACHE:    3538519
L1D PQ	ACCESS:    8815662	FORWARD:          0	MERGED:     106976	TO_CACHE:    8708685

L1D UNIQUE REGIONS ACCESSED: 0
L1D REGIONS CONFLICTS: 0
L1D Cross Page Prefetch Requests: 8912233
L1D Same Page Prefetch Requests: 4274599
L1D ROI Sum of L1D PQ occupancy: 207763977
L1D PREFETCHES PUSHED FROM L2C: 0
L1I TOTAL     ACCESS:   20891444  HIT:   20891444  MISS:          0  HIT %:        100  MISS %:          0   MPKI: 0
L1I LOAD      ACCESS:   20891444  HIT:   20891444  MISS:          0  HIT %:        100  MISS %:          0   MPKI: 0
L1I PREFETCH  REQUESTED:          0  ISSUED:          0  USEFUL:          0  USELESS:          0
L1I USEFUL LOAD PREFETCHES:          0 PREFETCH ISSUED TO LOWER LEVEL:          0  ACCURACY: -nan
L1I TIMELY PREFETCHES:          0 LATE PREFETCHES: 0 DROPPED PREFETCHES: 0
L1I PREFETCHES SAME FILL-ORIGIN LEVEL: 0 DIFFERENT FILL-ORIGIN LEVEL: 0
L1I AVERAGE MISS LATENCY: -nan cycles
L1I RQ	ACCESS:   27975068	FORWARD:          0	MERGED:    7083625	TO_CACHE:   20891443

BTB TOTAL     ACCESS:   21387461  HIT:   21387447  MISS:         14  HIT %:    99.9999  MISS %: 6.54589e-05   MPKI: 0.00014
BTB BRANCH_DIRECT_JUMP	ACCESS:     170875  HIT:     170871  MISS:          4
BTB BRANCH_INDIRECT	ACCESS:          0  HIT:          0  MISS:          0
BTB BRANCH_CONDITIONAL	ACCESS:   21216566  HIT:   21216558  MISS:          8
BTB BRANCH_DIRECT_CALL	ACCESS:         10  HIT:          9  MISS:          1
BTB BRANCH_INDIRECT_CALL	ACCESS:          0  HIT:          0  MISS:          0
BTB BRANCH_RETURN	ACCESS:         10  HIT:          9  MISS:          1
BTB BRANCH_OTHER ACCESS:          0  HIT:          0  MISS:          0

L2C TOTAL     ACCESS:   20579824  HIT:    5834754  MISS:   14745070  HIT %:    28.3518  MISS %:    71.6482   MPKI: 147.451
L2C LOAD      ACCESS:    8272361  HIT:     884958  MISS:    7387403  HIT %:    10.6978  MISS %:    89.3022   MPKI: 73.874
L2C DATA LOAD MPKI: 73.874
L2C INSTRUCTION LOAD MPKI: 0
L2C RFO       ACCESS:      21321  HIT:        937  MISS:      20384  HIT %:    4.39473  MISS %:    95.6053   MPKI: 0.20384
L2C PREFETCH  ACCESS:    8475544  HIT:    1331936  MISS:    7143608  HIT %:    15.7151  MISS %:    84.2849   MPKI: 71.4361
AGUS PREFETCH L1 MISS: 0
L2C DATA PREFETCH MPKI: 71.4361
L2C INSTRUCTION PREFETCH MPKI: 0
L2C WRITEBACK ACCESS:    1775960  HIT:    1775353  MISS:        607  HIT %:    99.9658  MISS %:  0.0341787   MPKI: 0.00607
L2C LOAD TRANSLATION ACCESS:     779774  HIT:     726507  MISS:      53267  HIT %:    93.1689  MISS %:    6.83108   MPKI: 0.53267
L2C TRANSLATION FROM L1D PREFETCHER ACCESS:    1254864  HIT:    1115063  MISS:     139801  HIT %:    88.8593  MISS %:    11.1407   MPKI: 1.39801
L2C PREFETCH  REQUESTED:          0  ISSUED:          0  USEFUL:     373590  USELESS:    6909488
L2C USEFUL LOAD PREFETCHES:     373590 PREFETCH ISSUED TO LOWER LEVEL:    7143607  ACCURACY: 5.22971
L2C TIMELY PREFETCHES:     373590 LATE PREFETCHES: 0 DROPPED PREFETCHES: 0
L2C PREFETCHES SAME FILL-ORIGIN LEVEL: 0 DIFFERENT FILL-ORIGIN LEVEL: 0
L2C AVERAGE MISS LATENCY: 124.416 cycles
L2C RQ	ACCESS:   10328321	FORWARD:          0	MERGED:          0	TO_CACHE:   10328320
L2C WQ	ACCESS:    1775960	FORWARD:          1	MERGED:          0	TO_CACHE:    1775960
L2C PQ	ACCESS:    8475536	FORWARD:          0	MERGED:          0	TO_CACHE:    8475536

L2C Instructions Evicting Data 0
L2C Translations Evicting Data 193000
L2C Data Evicting Data 14358247
L2C Instructions Evicting Instructions 0
L2C Translations Evicting Instructions 0
L2C Data Evicting Instructions 0
L2C Instructions Evicting Translations 0
L2C Translations Evicting Translations 68
L2C Data Evicting Translations 193148
L2C Dense regions hint from L2: 0
PSCL5 TOTAL     ACCESS:    2034568  HIT:    2034568  MISS:          0  HIT %:        100  MISS %:          0   MPKI: 0
PSCL5 LOAD TRANSLATION ACCESS:     779715  HIT:     779715  MISS:          0  HIT %:        100  MISS %:          0   MPKI: 0
PSCL5 TRANSLATION FROM L1D PREFETCHER ACCESS:    1254853  HIT:    1254853  MISS:          0  HIT %:        100  MISS %:          0   MPKI: 0
PSCL5 PREFETCH  REQUESTED:          0  ISSUED:          0  USEFUL:          0  USELESS:          0
PSCL5 USEFUL LOAD PREFETCHES:          0 PREFETCH ISSUED TO LOWER LEVEL:          0  ACCURACY: -nan
PSCL5 TIMELY PREFETCHES:          0 LATE PREFETCHES: 0 DROPPED PREFETCHES: 0
PSCL5 PREFETCHES SAME FILL-ORIGIN LEVEL: 0 DIFFERENT FILL-ORIGIN LEVEL: 0

PSCL4 TOTAL     ACCESS:    2034568  HIT:    2034568  MISS:          0  HIT %:        100  MISS %:          0   MPKI: 0
PSCL4 LOAD TRANSLATION ACCESS:     779715  HIT:     779715  MISS:          0  HIT %:        100  MISS %:          0   MPKI: 0
PSCL4 TRANSLATION FROM L1D PREFETCHER ACCESS:    1254853  HIT:    1254853  MISS:          0  HIT %:        100  MISS %:          0   MPKI: 0
PSCL4 PREFETCH  REQUESTED:          0  ISSUED:          0  USEFUL:          0  USELESS:          0
PSCL4 USEFUL LOAD PREFETCHES:          0 PREFETCH ISSUED TO LOWER LEVEL:          0  ACCURACY: -nan
PSCL4 TIMELY PREFETCHES:          0 LATE PREFETCHES: 0 DROPPED PREFETCHES: 0
PSCL4 PREFETCHES SAME FILL-ORIGIN LEVEL: 0 DIFFERENT FILL-ORIGIN LEVEL: 0

PSCL3 TOTAL     ACCESS:    2034568  HIT:    2034568  MISS:          0  HIT %:        100  MISS %:          0   MPKI: 0
PSCL3 LOAD TRANSLATION ACCESS:     779715  HIT:     779715  MISS:          0  HIT %:        100  MISS %:          0   MPKI: 0
PSCL3 TRANSLATION FROM L1D PREFETCHER ACCESS:    1254853  HIT:    1254853  MISS:          0  HIT %:        100  MISS %:          0   MPKI: 0
PSCL3 PREFETCH  REQUESTED:          0  ISSUED:          0  USEFUL:          0  USELESS:          0
PSCL3 USEFUL LOAD PREFETCHES:          0 PREFETCH ISSUED TO LOWER LEVEL:          0  ACCURACY: -nan
PSCL3 TIMELY PREFETCHES:          0 LATE PREFETCHES: 0 DROPPED PREFETCHES: 0
PSCL3 PREFETCHES SAME FILL-ORIGIN LEVEL: 0 DIFFERENT FILL-ORIGIN LEVEL: 0

PSCL2 TOTAL     ACCESS:    2034568  HIT:    2034498  MISS:         70  HIT %:    99.9966  MISS %: 0.00344053   MPKI: 0.0007
PSCL2 LOAD TRANSLATION ACCESS:     779726  HIT:     779656  MISS:         70  HIT %:     99.991  MISS %: 0.00897751   MPKI: 0.0007
PSCL2 TRANSLATION FROM L1D PREFETCHER ACCESS:    1254842  HIT:    1254842  MISS:          0  HIT %:        100  MISS %:          0   MPKI: 0
PSCL2 PREFETCH  REQUESTED:          0  ISSUED:          0  USEFUL:          0  USELESS:          0
PSCL2 USEFUL LOAD PREFETCHES:          0 PREFETCH ISSUED TO LOWER LEVEL:          0  ACCURACY: -nan
PSCL2 TIMELY PREFETCHES:          0 LATE PREFETCHES: 0 DROPPED PREFETCHES: 0
PSCL2 PREFETCHES SAME FILL-ORIGIN LEVEL: 0 DIFFERENT FILL-ORIGIN LEVEL: 0

LLC TOTAL     ACCESS:   16505741  HIT:    8611383  MISS:    7894358  HIT %:     52.172  MISS %:     47.828   MPKI: 78.9436
LLC LOAD      ACCESS:    7387402  HIT:    2774008  MISS:    4613394  HIT %:    37.5505  MISS %:    62.4495   MPKI: 46.1339
LLC RFO       ACCESS:      20384  HIT:        275  MISS:      20109  HIT %:     1.3491  MISS %:    98.6509   MPKI: 0.20109
LLC PREFETCH  ACCESS:    7143606  HIT:    3902916  MISS:    3240690  HIT %:    54.6351  MISS %:    45.3649   MPKI: 32.4069
AGUS PREFETCH L1 MISS: 0
LLC WRITEBACK ACCESS:    1761281  HIT:    1760983  MISS:        298  HIT %:    99.9831  MISS %:  0.0169195   MPKI: 0.00298
LLC LOAD TRANSLATION ACCESS:      53267  HIT:      46328  MISS:       6939  HIT %:    86.9732  MISS %:    13.0268   MPKI: 0.06939
LLC TRANSLATION FROM L1D PREFETCHER ACCESS:     139801  HIT:     126873  MISS:      12928  HIT %:    90.7526  MISS %:    9.24743   MPKI: 0.12928
LLC PREFETCH  REQUESTED:          0  ISSUED:          0  USEFUL:     491260  USELESS:    2762122
LLC USEFUL LOAD PREFETCHES:     491260 PREFETCH ISSUED TO LOWER LEVEL:    3240690  ACCURACY: 15.1591
LLC TIMELY PREFETCHES:     491260 LATE PREFETCHES: 0 DROPPED PREFETCHES: 0
LLC PREFETCHES SAME FILL-ORIGIN LEVEL: 0 DIFFERENT FILL-ORIGIN LEVEL: 0
LLC AVERAGE MISS LATENCY: 176.276 cycles
LLC RQ	ACCESS:    7600855	FORWARD:          0	MERGED:          0	TO_CACHE:    7600854
LLC WQ	ACCESS:    1761281	FORWARD:          3	MERGED:          0	TO_CACHE:    1761281
LLC PQ	ACCESS:    7143607	FORWARD:          0	MERGED:          0	TO_CACHE:    7143605

LLC Dense regions hint to LLC: 0

RAW hits: 87009
Loads Generated: 24299125
Loads sent to L1D: 24212115
Stores Generated: 3549968
Stores sent to L1D: 3549972
Major fault: 0 Minor fault: 23747
Allocated PAGES: 23747
Prefetcher final stats
Training Unit Size: 111
Addr table size: 793821 793821


Triggers: 12128122
No Prediction: 1817795 14.9883
Stream end: 10021058
No translation: 1470669699 12126.1
Predictions: 13186832 108.729


Stream divergence: 2779670 22.9192
Stream divergence -- new stream: 0

DRAM Statistics
 CHANNEL 0
 RQ ROW_BUFFER_HIT:    1786282  ROW_BUFFER_MISS:    6107575
 DBUS_CONGESTED:       4994
 WQ ROW_BUFFER_HIT:     947186  ROW_BUFFER_MISS:     682362  FULL:          0

 AVG_CONGESTED_CYCLE: 4
 All warmup complete: 2
Channel 0 Bank busy for read cycles: 0
Channel 0 Bank busy for write cycles: 0
Channel 0
Rank 0
0banks busy for read cycles: 32248317
0banks busy for write cycles: 225737
1banks busy for read cycles: 178622715
1banks busy for write cycles: 46591644
2banks busy for read cycles: 121853326
2banks busy for write cycles: 45693480
3banks busy for read cycles: 76535454
3banks busy for write cycles: 36137503
4banks busy for read cycles: 43763850
4banks busy for write cycles: 24384200
5banks busy for read cycles: 21504150
5banks busy for write cycles: 14131807
6banks busy for read cycles: 8453436
6banks busy for write cycles: 6885190
7banks busy for read cycles: 2363868
7banks busy for write cycles: 2656505
8banks busy for read cycles: 478467
8banks busy for write cycles: 860073

CPU 0 Branch Prediction Accuracy: 90.3568% MPKI: 20.6367 Average ROB Occupancy at Mispredict: 33.3066
Branch types
NOT_BRANCH: 78599477 78.5995%
BRANCH_DIRECT_JUMP: 170875 0.170875%
BRANCH_INDIRECT: 0 0%
BRANCH_CONDITIONAL: 21229378 21.2294%
BRANCH_DIRECT_CALL: 10 1e-05%
BRANCH_INDIRECT_CALL: 0 0%
BRANCH_RETURN: 10 1e-05%
BRANCH_OTHER: 0 0%

DRAM PAGES: 1048576
Allocated PAGES: 23747
