
*** ChampSim Multicore Out-of-Order Simulator ***

Warmup Instructions: 50000000
Simulation Instructions: 100000000
Number of CPUs: 1
LLC sets: 2048
LLC ways: 16
Off-chip DRAM Size: 4096 MB Channels: 1 Width: 64-bit Data Rate: 6400 MT/s
CPU 0 runs ./traces/GAP/bc-3.trace.gz
.gz
CPU 0 Bimodal branch predictor
BTB has LRU replacement policy
ITLB has LRU replacement policy
DTLB has LRU replacement policy
STLB has LRU replacement policy
L1I has LRU replacement policy
L1D has LRU replacement policy
Ideal ISB Prefetching
L2C has LRU replacement policy
LLC has LRU replacement policy
Heartbeat CPU 0 instructions: 10000001 cycles: 3644161 heartbeat IPC: 2.74412 cumulative IPC: 2.74412 (Simulation time: 0 hr 1 min 8 sec) 
Heartbeat CPU 0 instructions: 20000000 cycles: 6674153 heartbeat IPC: 3.30034 cumulative IPC: 2.99663 (Simulation time: 0 hr 3 min 15 sec) 
Heartbeat CPU 0 instructions: 30000000 cycles: 9678828 heartbeat IPC: 3.32815 cumulative IPC: 3.09955 (Simulation time: 0 hr 5 min 52 sec) 
Heartbeat CPU 0 instructions: 40000000 cycles: 12674746 heartbeat IPC: 3.33788 cumulative IPC: 3.15588 (Simulation time: 0 hr 8 min 36 sec) 
Heartbeat CPU 0 instructions: 50000003 cycles: 15667767 heartbeat IPC: 3.34111 cumulative IPC: 3.19127 (Simulation time: 0 hr 11 min 25 sec) 

Warmup complete CPU 0 instructions: 50000003 cycles: 15667767 (Simulation time: 0 hr 11 min 25 sec) 

Heartbeat CPU 0 instructions: 60000000 cycles: 83103456 heartbeat IPC: 0.148289 cumulative IPC: 0.148289 (Simulation time: 0 hr 14 min 48 sec) 
Heartbeat CPU 0 instructions: 70000000 cycles: 150541276 heartbeat IPC: 0.148285 cumulative IPC: 0.148287 (Simulation time: 0 hr 18 min 16 sec) 
Heartbeat CPU 0 instructions: 80000000 cycles: 217925143 heartbeat IPC: 0.148403 cumulative IPC: 0.148326 (Simulation time: 0 hr 21 min 43 sec) 
Heartbeat CPU 0 instructions: 90000000 cycles: 285193918 heartbeat IPC: 0.148657 cumulative IPC: 0.148409 (Simulation time: 0 hr 25 min 13 sec) 
Heartbeat CPU 0 instructions: 100000000 cycles: 351982818 heartbeat IPC: 0.149725 cumulative IPC: 0.14867 (Simulation time: 0 hr 28 min 43 sec) 
Heartbeat CPU 0 instructions: 110000002 cycles: 419070243 heartbeat IPC: 0.149059 cumulative IPC: 0.148735 (Simulation time: 0 hr 32 min 17 sec) 
Heartbeat CPU 0 instructions: 120000000 cycles: 485423228 heartbeat IPC: 0.150709 cumulative IPC: 0.149014 (Simulation time: 0 hr 35 min 55 sec) 
Heartbeat CPU 0 instructions: 130000003 cycles: 552432748 heartbeat IPC: 0.149233 cumulative IPC: 0.149041 (Simulation time: 0 hr 39 min 33 sec) 
Heartbeat CPU 0 instructions: 140000000 cycles: 619245794 heartbeat IPC: 0.149671 cumulative IPC: 0.149111 (Simulation time: 0 hr 43 min 7 sec) 
Heartbeat CPU 0 instructions: 150000003 cycles: 686195822 heartbeat IPC: 0.149365 cumulative IPC: 0.149136 (Simulation time: 0 hr 46 min 44 sec) 
Finished CPU 0 instructions: 100000000 cycles: 670528055 cumulative IPC: 0.149136 (Simulation time: 0 hr 46 min 44 sec) 

ChampSim completed all CPUs

Region of Interest Statistics

CPU 0 cumulative IPC: 0.149136 instructions: 100000000 cycles: 670528055
ITLB TOTAL     ACCESS:   20644481  HIT:   20644481  MISS:          0  HIT %:        100  MISS %:          0   MPKI: 0
ITLB LOAD TRANSLATION ACCESS:   20644481  HIT:   20644481  MISS:          0  HIT %:        100  MISS %:          0   MPKI: 0
ITLB PREFETCH  REQUESTED:          0  ISSUED:          0  USEFUL:          0  USELESS:          0
ITLB USEFUL LOAD PREFETCHES:          0 PREFETCH ISSUED TO LOWER LEVEL:          0  ACCURACY: -nan
ITLB TIMELY PREFETCHES:          0 LATE PREFETCHES: 0 DROPPED PREFETCHES: 0
ITLB PREFETCHES SAME FILL-ORIGIN LEVEL: 0 DIFFERENT FILL-ORIGIN LEVEL: 0
ITLB AVERAGE MISS LATENCY: -nan cycles
ITLB RQ	ACCESS:   20891277	FORWARD:          0	MERGED:     246797	TO_CACHE:   20644480

DTLB TOTAL     ACCESS:   22349588  HIT:   18495616  MISS:    3853972  HIT %:     82.756  MISS %:     17.244   MPKI: 38.5397
DTLB LOAD TRANSLATION ACCESS:   22349588  HIT:   18495616  MISS:    3853972  HIT %:     82.756  MISS %:     17.244   MPKI: 38.5397
DTLB PREFETCH  REQUESTED:          0  ISSUED:          0  USEFUL:          0  USELESS:          0
DTLB USEFUL LOAD PREFETCHES:          0 PREFETCH ISSUED TO LOWER LEVEL:          0  ACCURACY: -nan
DTLB TIMELY PREFETCHES:          0 LATE PREFETCHES: 0 DROPPED PREFETCHES: 0
DTLB PREFETCHES SAME FILL-ORIGIN LEVEL: 0 DIFFERENT FILL-ORIGIN LEVEL: 0
DTLB AVERAGE MISS LATENCY: 18.5025 cycles
DTLB RQ	ACCESS:   23952847	FORWARD:          0	MERGED:    1404837	TO_CACHE:   22548010

STLB TOTAL     ACCESS:    3853972  HIT:    2692196  MISS:    1161776  HIT %:    69.8551  MISS %:    30.1449   MPKI: 11.6178
STLB LOAD TRANSLATION ACCESS:    3853972  HIT:    2692196  MISS:    1161776  HIT %:    69.8551  MISS %:    30.1449   MPKI: 11.6178
STLB PREFETCH  REQUESTED:          0  ISSUED:          0  USEFUL:          0  USELESS:          0
STLB USEFUL LOAD PREFETCHES:          0 PREFETCH ISSUED TO LOWER LEVEL:          0  ACCURACY: -nan
STLB TIMELY PREFETCHES:          0 LATE PREFETCHES: 0 DROPPED PREFETCHES: 0
STLB PREFETCHES SAME FILL-ORIGIN LEVEL: 0 DIFFERENT FILL-ORIGIN LEVEL: 0
STLB AVERAGE MISS LATENCY: 30.7917 cycles
STLB RQ	ACCESS:    3853971	FORWARD:          0	MERGED:          0	TO_CACHE:    3853971

STLB Hit, L1D data hit: 0
STLB Hit, L2C data hit: 0
STLB Hit, LLC data hit: 0
STLB Hit, LLC data miss: 0
STLB STLB hints to L2: 0
L1D TOTAL     ACCESS:   23239423  HIT:   14415615  MISS:    8823808  HIT %:    62.0309  MISS %:    37.9691   MPKI: 88.2381
L1D LOAD      ACCESS:   19730944  HIT:   10927651  MISS:    8803293  HIT %:    55.3833  MISS %:    44.6167   MPKI: 88.0329
L1D RFO       ACCESS:    3508479  HIT:    3487964  MISS:      20515  HIT %:    99.4153  MISS %:   0.584726   MPKI: 0.20515
L1D PREFETCH  REQUESTED:          0  ISSUED:          0  USEFUL:          0  USELESS:          0
L1D USEFUL LOAD PREFETCHES:          0 PREFETCH ISSUED TO LOWER LEVEL:          0  ACCURACY: -nan
L1D TIMELY PREFETCHES:          0 LATE PREFETCHES: 0 DROPPED PREFETCHES: 0
L1D PREFETCHES SAME FILL-ORIGIN LEVEL: 0 DIFFERENT FILL-ORIGIN LEVEL: 0
L1D AVERAGE MISS LATENCY: 129.4 cycles
L1D RQ	ACCESS:   24209082	FORWARD:          0	MERGED:    3751090	TO_CACHE:   20414937
L1D WQ	ACCESS:    3549972	FORWARD:      43055	MERGED:      12062	TO_CACHE:    3537910

L1D UNIQUE REGIONS ACCESSED: 0
L1D REGIONS CONFLICTS: 0
L1D Cross Page Prefetch Requests: 0
L1D Same Page Prefetch Requests: 0
L1D ROI Sum of L1D PQ occupancy: 0
L1D PREFETCHES PUSHED FROM L2C: 0
L1I TOTAL     ACCESS:   20891278  HIT:   20891278  MISS:          0  HIT %:        100  MISS %:          0   MPKI: 0
L1I LOAD      ACCESS:   20891278  HIT:   20891278  MISS:          0  HIT %:        100  MISS %:          0   MPKI: 0
L1I PREFETCH  REQUESTED:          0  ISSUED:          0  USEFUL:          0  USELESS:          0
L1I USEFUL LOAD PREFETCHES:          0 PREFETCH ISSUED TO LOWER LEVEL:          0  ACCURACY: -nan
L1I TIMELY PREFETCHES:          0 LATE PREFETCHES: 0 DROPPED PREFETCHES: 0
L1I PREFETCHES SAME FILL-ORIGIN LEVEL: 0 DIFFERENT FILL-ORIGIN LEVEL: 0
L1I AVERAGE MISS LATENCY: -nan cycles
L1I RQ	ACCESS:   27975109	FORWARD:          0	MERGED:    7083832	TO_CACHE:   20891277

BTB TOTAL     ACCESS:   21387461  HIT:   21387447  MISS:         14  HIT %:    99.9999  MISS %: 6.54589e-05   MPKI: 0.00014
BTB BRANCH_DIRECT_JUMP	ACCESS:     170875  HIT:     170871  MISS:          4
BTB BRANCH_INDIRECT	ACCESS:          0  HIT:          0  MISS:          0
BTB BRANCH_CONDITIONAL	ACCESS:   21216566  HIT:   21216558  MISS:          8
BTB BRANCH_DIRECT_CALL	ACCESS:         10  HIT:          9  MISS:          1
BTB BRANCH_INDIRECT_CALL	ACCESS:          0  HIT:          0  MISS:          0
BTB BRANCH_RETURN	ACCESS:         10  HIT:          9  MISS:          1
BTB BRANCH_OTHER ACCESS:          0  HIT:          0  MISS:          0

L2C TOTAL     ACCESS:   19894091  HIT:    4881275  MISS:   15012816  HIT %:    24.5363  MISS %:    75.4637   MPKI: 150.128
L2C LOAD      ACCESS:    8803293  HIT:    1384516  MISS:    7418777  HIT %:    15.7273  MISS %:    84.2727   MPKI: 74.1878
L2C DATA LOAD MPKI: 74.1878
L2C INSTRUCTION LOAD MPKI: 0
L2C RFO       ACCESS:      20515  HIT:        135  MISS:      20380  HIT %:   0.658055  MISS %:    99.3419   MPKI: 0.2038
L2C PREFETCH  ACCESS:    8134480  HIT:     781561  MISS:    7352919  HIT %:      9.608  MISS %:     90.392   MPKI: 73.5292
AGUS PREFETCH L1 MISS: 0
L2C DATA PREFETCH MPKI: 73.5292
L2C INSTRUCTION PREFETCH MPKI: 0
L2C WRITEBACK ACCESS:    1773958  HIT:    1773570  MISS:        388  HIT %:    99.9781  MISS %:   0.021872   MPKI: 0.00388
L2C LOAD TRANSLATION ACCESS:    1161845  HIT:     941493  MISS:     220352  HIT %:    81.0343  MISS %:    18.9657   MPKI: 2.20352
L2C PREFETCH  REQUESTED:    8351957  ISSUED:    8344379  USEFUL:     699221  USELESS:    6653834
L2C USEFUL LOAD PREFETCHES:     699221 PREFETCH ISSUED TO LOWER LEVEL:    7394298  ACCURACY: 9.45622
L2C TIMELY PREFETCHES:     699221 LATE PREFETCHES: 41379 DROPPED PREFETCHES: 0
L2C PREFETCHES SAME FILL-ORIGIN LEVEL: 7394298 DIFFERENT FILL-ORIGIN LEVEL: 0
L2C AVERAGE MISS LATENCY: 125.769 cycles
L2C RQ	ACCESS:    9985653	FORWARD:          0	MERGED:          0	TO_CACHE:    9985653
L2C WQ	ACCESS:    1773958	FORWARD:          0	MERGED:          0	TO_CACHE:    1773958
L2C PQ	ACCESS:    8344379	FORWARD:          0	MERGED:      76238	TO_CACHE:    8268141

L2C Instructions Evicting Data 0
L2C Translations Evicting Data 220266
L2C Data Evicting Data 14571691
L2C Instructions Evicting Instructions 0
L2C Translations Evicting Instructions 0
L2C Data Evicting Instructions 0
L2C Instructions Evicting Translations 0
L2C Translations Evicting Translations 86
L2C Data Evicting Translations 220385
L2C Dense regions hint from L2: 0
PSCL5 TOTAL     ACCESS:    1161775  HIT:    1161775  MISS:          0  HIT %:        100  MISS %:          0   MPKI: 0
PSCL5 LOAD TRANSLATION ACCESS:    1161775  HIT:    1161775  MISS:          0  HIT %:        100  MISS %:          0   MPKI: 0
PSCL5 PREFETCH  REQUESTED:          0  ISSUED:          0  USEFUL:          0  USELESS:          0
PSCL5 USEFUL LOAD PREFETCHES:          0 PREFETCH ISSUED TO LOWER LEVEL:          0  ACCURACY: -nan
PSCL5 TIMELY PREFETCHES:          0 LATE PREFETCHES: 0 DROPPED PREFETCHES: 0
PSCL5 PREFETCHES SAME FILL-ORIGIN LEVEL: 0 DIFFERENT FILL-ORIGIN LEVEL: 0

PSCL4 TOTAL     ACCESS:    1161775  HIT:    1161775  MISS:          0  HIT %:        100  MISS %:          0   MPKI: 0
PSCL4 LOAD TRANSLATION ACCESS:    1161775  HIT:    1161775  MISS:          0  HIT %:        100  MISS %:          0   MPKI: 0
PSCL4 PREFETCH  REQUESTED:          0  ISSUED:          0  USEFUL:          0  USELESS:          0
PSCL4 USEFUL LOAD PREFETCHES:          0 PREFETCH ISSUED TO LOWER LEVEL:          0  ACCURACY: -nan
PSCL4 TIMELY PREFETCHES:          0 LATE PREFETCHES: 0 DROPPED PREFETCHES: 0
PSCL4 PREFETCHES SAME FILL-ORIGIN LEVEL: 0 DIFFERENT FILL-ORIGIN LEVEL: 0

PSCL3 TOTAL     ACCESS:    1161775  HIT:    1161775  MISS:          0  HIT %:        100  MISS %:          0   MPKI: 0
PSCL3 LOAD TRANSLATION ACCESS:    1161775  HIT:    1161775  MISS:          0  HIT %:        100  MISS %:          0   MPKI: 0
PSCL3 PREFETCH  REQUESTED:          0  ISSUED:          0  USEFUL:          0  USELESS:          0
PSCL3 USEFUL LOAD PREFETCHES:          0 PREFETCH ISSUED TO LOWER LEVEL:          0  ACCURACY: -nan
PSCL3 TIMELY PREFETCHES:          0 LATE PREFETCHES: 0 DROPPED PREFETCHES: 0
PSCL3 PREFETCHES SAME FILL-ORIGIN LEVEL: 0 DIFFERENT FILL-ORIGIN LEVEL: 0

PSCL2 TOTAL     ACCESS:    1161775  HIT:    1161705  MISS:         70  HIT %:     99.994  MISS %: 0.00602526   MPKI: 0.0007
PSCL2 LOAD TRANSLATION ACCESS:    1161775  HIT:    1161705  MISS:         70  HIT %:     99.994  MISS %: 0.00602526   MPKI: 0.0007
PSCL2 PREFETCH  REQUESTED:          0  ISSUED:          0  USEFUL:          0  USELESS:          0
PSCL2 USEFUL LOAD PREFETCHES:          0 PREFETCH ISSUED TO LOWER LEVEL:          0  ACCURACY: -nan
PSCL2 TIMELY PREFETCHES:          0 LATE PREFETCHES: 0 DROPPED PREFETCHES: 0
PSCL2 PREFETCHES SAME FILL-ORIGIN LEVEL: 0 DIFFERENT FILL-ORIGIN LEVEL: 0

LLC TOTAL     ACCESS:   16773068  HIT:    8709814  MISS:    8063254  HIT %:    51.9274  MISS %:    48.0726   MPKI: 80.6325
LLC LOAD      ACCESS:    7377397  HIT:    2763287  MISS:    4614110  HIT %:    37.4561  MISS %:    62.5439   MPKI: 46.1411
LLC RFO       ACCESS:      20380  HIT:        266  MISS:      20114  HIT %:     1.3052  MISS %:    98.6948   MPKI: 0.20114
LLC PREFETCH  ACCESS:    7394296  HIT:    3979859  MISS:    3414437  HIT %:    53.8234  MISS %:    46.1766   MPKI: 34.1444
AGUS PREFETCH L1 MISS: 0
LLC WRITEBACK ACCESS:    1760643  HIT:    1760543  MISS:        100  HIT %:    99.9943  MISS %: 0.00567974   MPKI: 0.001
LLC LOAD TRANSLATION ACCESS:     220352  HIT:     205859  MISS:      14493  HIT %:    93.4228  MISS %:     6.5772   MPKI: 0.14493
LLC PREFETCH  REQUESTED:          0  ISSUED:          0  USEFUL:     500014  USELESS:    2914401
LLC USEFUL LOAD PREFETCHES:     500014 PREFETCH ISSUED TO LOWER LEVEL:    3414437  ACCURACY: 14.6441
LLC TIMELY PREFETCHES:     500014 LATE PREFETCHES: 0 DROPPED PREFETCHES: 0
LLC PREFETCHES SAME FILL-ORIGIN LEVEL: 0 DIFFERENT FILL-ORIGIN LEVEL: 0
LLC AVERAGE MISS LATENCY: 178.232 cycles
LLC RQ	ACCESS:    7618130	FORWARD:          0	MERGED:          0	TO_CACHE:    7618129
LLC WQ	ACCESS:    1760643	FORWARD:          3	MERGED:          0	TO_CACHE:    1760643
LLC PQ	ACCESS:    7394298	FORWARD:          0	MERGED:          0	TO_CACHE:    7394296

LLC Dense regions hint to LLC: 0

RAW hits: 90043
Loads Generated: 24299126
Loads sent to L1D: 24209082
Stores Generated: 3549969
Stores sent to L1D: 3549972
Major fault: 0 Minor fault: 23747
Allocated PAGES: 23747
Prefetcher final stats
Training Unit Size: 100
Addr table size: 793877 793877


Triggers: 10670095
No Prediction: 1709282 16.0194
Stream end: 8665952
No translation: 210041298 1968.5
Predictions: 12732250 119.326


Stream divergence: 2521400 23.6305
Stream divergence -- new stream: 0

DRAM Statistics
 CHANNEL 0
 RQ ROW_BUFFER_HIT:    1877491  ROW_BUFFER_MISS:    6185500
 DBUS_CONGESTED:       5014
 WQ ROW_BUFFER_HIT:     894921  ROW_BUFFER_MISS:     738172  FULL:          0

 AVG_CONGESTED_CYCLE: 4
 All warmup complete: 2
Channel 0 Bank busy for read cycles: 0
Channel 0 Bank busy for write cycles: 0
Channel 0
Rank 0
0banks busy for read cycles: 37752285
0banks busy for write cycles: 258732
1banks busy for read cycles: 179164294
1banks busy for write cycles: 51530288
2banks busy for read cycles: 117548184
2banks busy for write cycles: 47717751
3banks busy for read cycles: 75118870
3banks busy for write cycles: 35765648
4banks busy for read cycles: 44493767
4banks busy for write cycles: 22930691
5banks busy for read cycles: 23162661
5banks busy for write cycles: 12522022
6banks busy for read cycles: 9999712
6banks busy for write cycles: 5838438
7banks busy for read cycles: 3229933
7banks busy for write cycles: 2126009
8banks busy for read cycles: 726927
8banks busy for write cycles: 641844

CPU 0 Branch Prediction Accuracy: 90.3568% MPKI: 20.6367 Average ROB Occupancy at Mispredict: 33.7619
Branch types
NOT_BRANCH: 78599477 78.5995%
BRANCH_DIRECT_JUMP: 170875 0.170875%
BRANCH_INDIRECT: 0 0%
BRANCH_CONDITIONAL: 21229378 21.2294%
BRANCH_DIRECT_CALL: 10 1e-05%
BRANCH_INDIRECT_CALL: 0 0%
BRANCH_RETURN: 10 1e-05%
BRANCH_OTHER: 0 0%

DRAM PAGES: 1048576
Allocated PAGES: 23747
