
*** ChampSim Multicore Out-of-Order Simulator ***

Warmup Instructions: 50000000
Simulation Instructions: 100000000
Number of CPUs: 1
LLC sets: 2048
LLC ways: 16
Off-chip DRAM Size: 4096 MB Channels: 1 Width: 64-bit Data Rate: 6400 MT/s
CPU 0 runs ./traces/GAP/bfs-3.trace.gz
.gz
CPU 0 Bimodal branch predictor
BTB has LRU replacement policy
ITLB has LRU replacement policy
DTLB has LRU replacement policy
STLB has LRU replacement policy
L1I has LRU replacement policy
L1D has LRU replacement policy
Ideal ISB Prefetching
L2C has LRU replacement policy
LLC has LRU replacement policy
Heartbeat CPU 0 instructions: 10000002 cycles: 2954733 heartbeat IPC: 3.3844 cumulative IPC: 3.3844 (Simulation time: 0 hr 0 min 18 sec) 
Heartbeat CPU 0 instructions: 20000000 cycles: 5967493 heartbeat IPC: 3.31921 cumulative IPC: 3.35149 (Simulation time: 0 hr 0 min 38 sec) 
Heartbeat CPU 0 instructions: 30000001 cycles: 8969789 heartbeat IPC: 3.33078 cumulative IPC: 3.34456 (Simulation time: 0 hr 0 min 58 sec) 
Heartbeat CPU 0 instructions: 40000000 cycles: 11971637 heartbeat IPC: 3.33128 cumulative IPC: 3.34123 (Simulation time: 0 hr 1 min 18 sec) 
Heartbeat CPU 0 instructions: 50000000 cycles: 15021455 heartbeat IPC: 3.27888 cumulative IPC: 3.32857 (Simulation time: 0 hr 1 min 38 sec) 

Warmup complete CPU 0 instructions: 50000004 cycles: 15021456 (Simulation time: 0 hr 1 min 38 sec) 

Heartbeat CPU 0 instructions: 60000000 cycles: 56798726 heartbeat IPC: 0.239365 cumulative IPC: 0.239365 (Simulation time: 0 hr 2 min 22 sec) 
Heartbeat CPU 0 instructions: 70000002 cycles: 86931110 heartbeat IPC: 0.331869 cumulative IPC: 0.278127 (Simulation time: 0 hr 2 min 56 sec) 
Heartbeat CPU 0 instructions: 80000000 cycles: 98098546 heartbeat IPC: 0.89546 cumulative IPC: 0.36111 (Simulation time: 0 hr 3 min 25 sec) 
Heartbeat CPU 0 instructions: 90000000 cycles: 117354138 heartbeat IPC: 0.51933 cumulative IPC: 0.390882 (Simulation time: 0 hr 3 min 56 sec) 
Heartbeat CPU 0 instructions: 100000000 cycles: 158652376 heartbeat IPC: 0.242141 cumulative IPC: 0.348114 (Simulation time: 0 hr 4 min 55 sec) 
Heartbeat CPU 0 instructions: 110000000 cycles: 193781945 heartbeat IPC: 0.28466 cumulative IPC: 0.335645 (Simulation time: 0 hr 5 min 58 sec) 
Heartbeat CPU 0 instructions: 120000000 cycles: 228344181 heartbeat IPC: 0.289333 cumulative IPC: 0.328141 (Simulation time: 0 hr 6 min 42 sec) 
Heartbeat CPU 0 instructions: 130000003 cycles: 266390618 heartbeat IPC: 0.262837 cumulative IPC: 0.318257 (Simulation time: 0 hr 7 min 27 sec) 
Heartbeat CPU 0 instructions: 140000000 cycles: 288683234 heartbeat IPC: 0.448579 cumulative IPC: 0.328873 (Simulation time: 0 hr 8 min 1 sec) 
Heartbeat CPU 0 instructions: 150000000 cycles: 304050581 heartbeat IPC: 0.65073 cumulative IPC: 0.345986 (Simulation time: 0 hr 8 min 41 sec) 
Finished CPU 0 instructions: 100000001 cycles: 289029131 cumulative IPC: 0.345986 (Simulation time: 0 hr 8 min 41 sec) 

ChampSim completed all CPUs

Region of Interest Statistics

CPU 0 cumulative IPC: 0.345986 instructions: 100000001 cycles: 289029131
ITLB TOTAL     ACCESS:   16649206  HIT:   16649206  MISS:          0  HIT %:        100  MISS %:          0   MPKI: 0
ITLB LOAD TRANSLATION ACCESS:   16649206  HIT:   16649206  MISS:          0  HIT %:        100  MISS %:          0   MPKI: 0
ITLB PREFETCH  REQUESTED:          0  ISSUED:          0  USEFUL:          0  USELESS:          0
ITLB USEFUL LOAD PREFETCHES:          0 PREFETCH ISSUED TO LOWER LEVEL:          0  ACCURACY: -nan
ITLB TIMELY PREFETCHES:          0 LATE PREFETCHES: 0 DROPPED PREFETCHES: 0
ITLB PREFETCHES SAME FILL-ORIGIN LEVEL: 0 DIFFERENT FILL-ORIGIN LEVEL: 0
ITLB AVERAGE MISS LATENCY: -nan cycles
ITLB RQ	ACCESS:   20916582	FORWARD:          0	MERGED:    4267376	TO_CACHE:   16649206

DTLB TOTAL     ACCESS:   18223325  HIT:   18049716  MISS:     173609  HIT %:    99.0473  MISS %:   0.952675   MPKI: 1.73609
DTLB LOAD TRANSLATION ACCESS:   18223325  HIT:   18049716  MISS:     173609  HIT %:    99.0473  MISS %:   0.952675   MPKI: 1.73609
DTLB PREFETCH  REQUESTED:          0  ISSUED:          0  USEFUL:          0  USELESS:          0
DTLB USEFUL LOAD PREFETCHES:          0 PREFETCH ISSUED TO LOWER LEVEL:          0  ACCURACY: -nan
DTLB TIMELY PREFETCHES:          0 LATE PREFETCHES: 0 DROPPED PREFETCHES: 0
DTLB PREFETCHES SAME FILL-ORIGIN LEVEL: 0 DIFFERENT FILL-ORIGIN LEVEL: 0
DTLB AVERAGE MISS LATENCY: 56.934 cycles
DTLB RQ	ACCESS:   19363108	FORWARD:          0	MERGED:    1127872	TO_CACHE:   18235236

STLB TOTAL     ACCESS:     173609  HIT:      86165  MISS:      87444  HIT %:    49.6316  MISS %:    50.3684   MPKI: 0.87444
STLB LOAD TRANSLATION ACCESS:     173609  HIT:      86165  MISS:      87444  HIT %:    49.6316  MISS %:    50.3684   MPKI: 0.87444
STLB PREFETCH  REQUESTED:          0  ISSUED:          0  USEFUL:          0  USELESS:          0
STLB USEFUL LOAD PREFETCHES:          0 PREFETCH ISSUED TO LOWER LEVEL:          0  ACCURACY: -nan
STLB TIMELY PREFETCHES:          0 LATE PREFETCHES: 0 DROPPED PREFETCHES: 0
STLB PREFETCHES SAME FILL-ORIGIN LEVEL: 0 DIFFERENT FILL-ORIGIN LEVEL: 0
STLB AVERAGE MISS LATENCY: 95.062 cycles
STLB RQ	ACCESS:     173609	FORWARD:          0	MERGED:          0	TO_CACHE:     173609

STLB Hit, L1D data hit: 0
STLB Hit, L2C data hit: 0
STLB Hit, LLC data hit: 0
STLB Hit, LLC data miss: 0
STLB STLB hints to L2: 0
L1D TOTAL     ACCESS:   18493885  HIT:   16084130  MISS:    2409755  HIT %:      86.97  MISS %:      13.03   MPKI: 24.0975
L1D LOAD      ACCESS:   15953157  HIT:   13640883  MISS:    2312274  HIT %:    85.5059  MISS %:    14.4941   MPKI: 23.1227
L1D RFO       ACCESS:    2540728  HIT:    2443247  MISS:      97481  HIT %:    96.1633  MISS %:    3.83673   MPKI: 0.97481
L1D PREFETCH  REQUESTED:          0  ISSUED:          0  USEFUL:          0  USELESS:          0
L1D USEFUL LOAD PREFETCHES:          0 PREFETCH ISSUED TO LOWER LEVEL:          0  ACCURACY: -nan
L1D TIMELY PREFETCHES:          0 LATE PREFETCHES: 0 DROPPED PREFETCHES: 0
L1D PREFETCHES SAME FILL-ORIGIN LEVEL: 0 DIFFERENT FILL-ORIGIN LEVEL: 0
L1D AVERAGE MISS LATENCY: 63.2669 cycles
L1D RQ	ACCESS:   23552506	FORWARD:          0	MERGED:    7117569	TO_CACHE:   16421454
L1D WQ	ACCESS:    3048712	FORWARD:      13483	MERGED:     107058	TO_CACHE:    2941654

L1D UNIQUE REGIONS ACCESSED: 0
L1D REGIONS CONFLICTS: 0
L1D Cross Page Prefetch Requests: 0
L1D Same Page Prefetch Requests: 0
L1D ROI Sum of L1D PQ occupancy: 0
L1D PREFETCHES PUSHED FROM L2C: 0
L1I TOTAL     ACCESS:   20916579  HIT:   20916562  MISS:         17  HIT %:    99.9999  MISS %: 8.12752e-05   MPKI: 0.00017
L1I LOAD      ACCESS:   20916579  HIT:   20916562  MISS:         17  HIT %:    99.9999  MISS %: 8.12752e-05   MPKI: 0.00017
L1I PREFETCH  REQUESTED:          0  ISSUED:          0  USEFUL:          0  USELESS:          0
L1I USEFUL LOAD PREFETCHES:          0 PREFETCH ISSUED TO LOWER LEVEL:          0  ACCURACY: -nan
L1I TIMELY PREFETCHES:          0 LATE PREFETCHES: 0 DROPPED PREFETCHES: 0
L1I PREFETCHES SAME FILL-ORIGIN LEVEL: 0 DIFFERENT FILL-ORIGIN LEVEL: 0
L1I AVERAGE MISS LATENCY: 206.471 cycles
L1I RQ	ACCESS:   33350690	FORWARD:          0	MERGED:   12434108	TO_CACHE:   20916582

BTB TOTAL     ACCESS:   20200244  HIT:   20199972  MISS:        272  HIT %:    99.9987  MISS %: 0.00134652   MPKI: 0.00272
BTB BRANCH_DIRECT_JUMP	ACCESS:      16039  HIT:      15994  MISS:         45
BTB BRANCH_INDIRECT	ACCESS:          1  HIT:          0  MISS:          1
BTB BRANCH_CONDITIONAL	ACCESS:   20183890  HIT:   20183788  MISS:        102
BTB BRANCH_DIRECT_CALL	ACCESS:        154  HIT:        111  MISS:         43
BTB BRANCH_INDIRECT_CALL	ACCESS:          3  HIT:          0  MISS:          3
BTB BRANCH_RETURN	ACCESS:        157  HIT:         79  MISS:         78
BTB BRANCH_OTHER ACCESS:          0  HIT:          0  MISS:          0

L2C TOTAL     ACCESS:    5581711  HIT:    2281019  MISS:    3300692  HIT %:    40.8659  MISS %:    59.1341   MPKI: 33.0069
L2C LOAD      ACCESS:    2312290  HIT:    1646543  MISS:     665747  HIT %:    71.2083  MISS %:    28.7917   MPKI: 6.65747
L2C DATA LOAD MPKI: 6.6573
L2C INSTRUCTION LOAD MPKI: 0.00017
L2C RFO       ACCESS:      97481  HIT:       4124  MISS:      93357  HIT %:    4.23057  MISS %:    95.7694   MPKI: 0.93357
L2C PREFETCH  ACCESS:    2666092  HIT:     146835  MISS:    2519257  HIT %:     5.5075  MISS %:    94.4925   MPKI: 25.1926
AGUS PREFETCH L1 MISS: 0
L2C DATA PREFETCH MPKI: 25.1926
L2C INSTRUCTION PREFETCH MPKI: 0
L2C WRITEBACK ACCESS:     417864  HIT:     416992  MISS:        872  HIT %:    99.7913  MISS %:    0.20868   MPKI: 0.00872
L2C LOAD TRANSLATION ACCESS:      87984  HIT:      66525  MISS:      21459  HIT %:    75.6103  MISS %:    24.3897   MPKI: 0.21459
L2C PREFETCH  REQUESTED:    3065198  ISSUED:    2977805  USEFUL:    1205848  USELESS:    1314585
L2C USEFUL LOAD PREFETCHES:    1205848 PREFETCH ISSUED TO LOWER LEVEL:    2557816  ACCURACY: 47.1437
L2C TIMELY PREFETCHES:    1205848 LATE PREFETCHES: 38559 DROPPED PREFETCHES: 0
L2C PREFETCHES SAME FILL-ORIGIN LEVEL: 2557816 DIFFERENT FILL-ORIGIN LEVEL: 0
L2C AVERAGE MISS LATENCY: 172.046 cycles
L2C RQ	ACCESS:    2497756	FORWARD:          0	MERGED:          0	TO_CACHE:    2497755
L2C WQ	ACCESS:     417864	FORWARD:          1	MERGED:          0	TO_CACHE:     417864
L2C PQ	ACCESS:    2977805	FORWARD:          0	MERGED:     125353	TO_CACHE:    2852452

L2C Instructions Evicting Data 17
L2C Translations Evicting Data 21102
L2C Data Evicting Data 3257186
L2C Instructions Evicting Instructions 0
L2C Translations Evicting Instructions 0
L2C Data Evicting Instructions 17
L2C Instructions Evicting Translations 0
L2C Translations Evicting Translations 357
L2C Data Evicting Translations 21141
L2C Dense regions hint from L2: 0
PSCL5 TOTAL     ACCESS:      87444  HIT:      87444  MISS:          0  HIT %:        100  MISS %:          0   MPKI: 0
PSCL5 LOAD TRANSLATION ACCESS:      87444  HIT:      87444  MISS:          0  HIT %:        100  MISS %:          0   MPKI: 0
PSCL5 PREFETCH  REQUESTED:          0  ISSUED:          0  USEFUL:          0  USELESS:          0
PSCL5 USEFUL LOAD PREFETCHES:          0 PREFETCH ISSUED TO LOWER LEVEL:          0  ACCURACY: -nan
PSCL5 TIMELY PREFETCHES:          0 LATE PREFETCHES: 0 DROPPED PREFETCHES: 0
PSCL5 PREFETCHES SAME FILL-ORIGIN LEVEL: 0 DIFFERENT FILL-ORIGIN LEVEL: 0

PSCL4 TOTAL     ACCESS:      87444  HIT:      87444  MISS:          0  HIT %:        100  MISS %:          0   MPKI: 0
PSCL4 LOAD TRANSLATION ACCESS:      87444  HIT:      87444  MISS:          0  HIT %:        100  MISS %:          0   MPKI: 0
PSCL4 PREFETCH  REQUESTED:          0  ISSUED:          0  USEFUL:          0  USELESS:          0
PSCL4 USEFUL LOAD PREFETCHES:          0 PREFETCH ISSUED TO LOWER LEVEL:          0  ACCURACY: -nan
PSCL4 TIMELY PREFETCHES:          0 LATE PREFETCHES: 0 DROPPED PREFETCHES: 0
PSCL4 PREFETCHES SAME FILL-ORIGIN LEVEL: 0 DIFFERENT FILL-ORIGIN LEVEL: 0

PSCL3 TOTAL     ACCESS:      87444  HIT:      87444  MISS:          0  HIT %:        100  MISS %:          0   MPKI: 0
PSCL3 LOAD TRANSLATION ACCESS:      87444  HIT:      87444  MISS:          0  HIT %:        100  MISS %:          0   MPKI: 0
PSCL3 PREFETCH  REQUESTED:          0  ISSUED:          0  USEFUL:          0  USELESS:          0
PSCL3 USEFUL LOAD PREFETCHES:          0 PREFETCH ISSUED TO LOWER LEVEL:          0  ACCURACY: -nan
PSCL3 TIMELY PREFETCHES:          0 LATE PREFETCHES: 0 DROPPED PREFETCHES: 0
PSCL3 PREFETCHES SAME FILL-ORIGIN LEVEL: 0 DIFFERENT FILL-ORIGIN LEVEL: 0

PSCL2 TOTAL     ACCESS:      87444  HIT:      86904  MISS:        540  HIT %:    99.3825  MISS %:   0.617538   MPKI: 0.0054
PSCL2 LOAD TRANSLATION ACCESS:      87444  HIT:      86904  MISS:        540  HIT %:    99.3825  MISS %:   0.617538   MPKI: 0.0054
PSCL2 PREFETCH  REQUESTED:          0  ISSUED:          0  USEFUL:          0  USELESS:          0
PSCL2 USEFUL LOAD PREFETCHES:          0 PREFETCH ISSUED TO LOWER LEVEL:          0  ACCURACY: -nan
PSCL2 TIMELY PREFETCHES:          0 LATE PREFETCHES: 0 DROPPED PREFETCHES: 0
PSCL2 PREFETCHES SAME FILL-ORIGIN LEVEL: 0 DIFFERENT FILL-ORIGIN LEVEL: 0

LLC TOTAL     ACCESS:    3670657  HIT:     805681  MISS:    2864976  HIT %:    21.9492  MISS %:    78.0508   MPKI: 28.6498
LLC LOAD      ACCESS:     627188  HIT:     122776  MISS:     504412  HIT %:    19.5756  MISS %:    80.4244   MPKI: 5.04412
LLC RFO       ACCESS:      93357  HIT:       3328  MISS:      90029  HIT %:    3.56481  MISS %:    96.4352   MPKI: 0.90029
LLC PREFETCH  ACCESS:    2557816  HIT:     308553  MISS:    2249263  HIT %:    12.0631  MISS %:    87.9369   MPKI: 22.4926
AGUS PREFETCH L1 MISS: 0
LLC WRITEBACK ACCESS:     370837  HIT:     368983  MISS:       1854  HIT %:       99.5  MISS %:    0.49995   MPKI: 0.01854
LLC LOAD TRANSLATION ACCESS:      21459  HIT:       2041  MISS:      19418  HIT %:    9.51116  MISS %:    90.4888   MPKI: 0.19418
LLC PREFETCH  REQUESTED:          0  ISSUED:          0  USEFUL:      38159  USELESS:    2216636
LLC USEFUL LOAD PREFETCHES:      38159 PREFETCH ISSUED TO LOWER LEVEL:    2249263  ACCURACY: 1.69651
LLC TIMELY PREFETCHES:      38159 LATE PREFETCHES: 0 DROPPED PREFETCHES: 0
LLC PREFETCHES SAME FILL-ORIGIN LEVEL: 0 DIFFERENT FILL-ORIGIN LEVEL: 0
LLC AVERAGE MISS LATENCY: 163.626 cycles
LLC RQ	ACCESS:     742004	FORWARD:          0	MERGED:          0	TO_CACHE:     742004
LLC WQ	ACCESS:     370837	FORWARD:          0	MERGED:          0	TO_CACHE:     370837
LLC PQ	ACCESS:    2557816	FORWARD:          0	MERGED:          0	TO_CACHE:    2557816

LLC Dense regions hint to LLC: 0

RAW hits: 151573
Loads Generated: 23704080
Loads sent to L1D: 23552506
Stores Generated: 3048712
Stores sent to L1D: 3048712
Major fault: 0 Minor fault: 27625
Allocated PAGES: 27625
Prefetcher final stats
Training Unit Size: 121
Addr table size: 576118 576118


Triggers: 1261469
No Prediction: 637698 50.552
Stream end: 234900
No translation: 236174150 18722.2
Predictions: 3317129 262.958


Stream divergence: 182206 14.444
Stream divergence -- new stream: 0

DRAM Statistics
 CHANNEL 0
 RQ ROW_BUFFER_HIT:    1503824  ROW_BUFFER_MISS:    1359177
 DBUS_CONGESTED:        572
 WQ ROW_BUFFER_HIT:      70377  ROW_BUFFER_MISS:     298538  FULL:          0

 AVG_CONGESTED_CYCLE: 4
 All warmup complete: 2
Channel 0 Bank busy for read cycles: 0
Channel 0 Bank busy for write cycles: 0
Channel 0
Rank 0
0banks busy for read cycles: 181145087
0banks busy for write cycles: 113534
1banks busy for read cycles: 30263487
1banks busy for write cycles: 12762171
2banks busy for read cycles: 9000525
2banks busy for write cycles: 5185049
3banks busy for read cycles: 5922499
3banks busy for write cycles: 2758390
4banks busy for read cycles: 4794276
4banks busy for write cycles: 1641597
5banks busy for read cycles: 5575367
5banks busy for write cycles: 1237276
6banks busy for read cycles: 7244107
6banks busy for write cycles: 1099440
7banks busy for read cycles: 7363153
7banks busy for write cycles: 1247969
8banks busy for read cycles: 8920959
8banks busy for write cycles: 2754246

CPU 0 Branch Prediction Accuracy: 87.3292% MPKI: 27.6799 Average ROB Occupancy at Mispredict: 8.6532
Branch types
NOT_BRANCH: 78154786 78.1548%
BRANCH_DIRECT_JUMP: 16039 0.016039%
BRANCH_INDIRECT: 1 1e-06%
BRANCH_CONDITIONAL: 21829090 21.8291%
BRANCH_DIRECT_CALL: 154 0.000154%
BRANCH_INDIRECT_CALL: 3 3e-06%
BRANCH_RETURN: 157 0.000157%
BRANCH_OTHER: 0 0%

DRAM PAGES: 1048576
Allocated PAGES: 27625
