
*** ChampSim Multicore Out-of-Order Simulator ***

Warmup Instructions: 50000000
Simulation Instructions: 100000000
Number of CPUs: 1
LLC sets: 2048
LLC ways: 16
Off-chip DRAM Size: 4096 MB Channels: 1 Width: 64-bit Data Rate: 6400 MT/s
CPU 0 runs ./traces/GAP/bfs-3.trace.gz
.gz
CPU 0 Bimodal branch predictor
BTB has LRU replacement policy
ITLB has LRU replacement policy
DTLB has LRU replacement policy
STLB has LRU replacement policy
L1I has LRU replacement policy
Ideal ISB Prefetching
L1D has LRU replacement policy
L2C has LRU replacement policy
LLC has LRU replacement policy
Heartbeat CPU 0 instructions: 10000002 cycles: 2954733 heartbeat IPC: 3.3844 cumulative IPC: 3.3844 (Simulation time: 0 hr 0 min 18 sec) 
Heartbeat CPU 0 instructions: 20000000 cycles: 5967493 heartbeat IPC: 3.31921 cumulative IPC: 3.35149 (Simulation time: 0 hr 1 min 45 sec) 
Heartbeat CPU 0 instructions: 30000001 cycles: 8969789 heartbeat IPC: 3.33078 cumulative IPC: 3.34456 (Simulation time: 0 hr 3 min 19 sec) 
Heartbeat CPU 0 instructions: 40000000 cycles: 11971637 heartbeat IPC: 3.33128 cumulative IPC: 3.34123 (Simulation time: 0 hr 4 min 55 sec) 
Heartbeat CPU 0 instructions: 50000003 cycles: 15021458 heartbeat IPC: 3.27888 cumulative IPC: 3.32857 (Simulation time: 0 hr 6 min 8 sec) 

Warmup complete CPU 0 instructions: 50000003 cycles: 15021458 (Simulation time: 0 hr 6 min 8 sec) 

Heartbeat CPU 0 instructions: 60000000 cycles: 54292248 heartbeat IPC: 0.254642 cumulative IPC: 0.254642 (Simulation time: 0 hr 7 min 18 sec) 
Heartbeat CPU 0 instructions: 70000002 cycles: 82873681 heartbeat IPC: 0.349878 cumulative IPC: 0.294758 (Simulation time: 0 hr 7 min 52 sec) 
Heartbeat CPU 0 instructions: 80000000 cycles: 93925748 heartbeat IPC: 0.904808 cumulative IPC: 0.380207 (Simulation time: 0 hr 8 min 21 sec) 
Heartbeat CPU 0 instructions: 90000000 cycles: 112495876 heartbeat IPC: 0.538499 cumulative IPC: 0.410364 (Simulation time: 0 hr 8 min 52 sec) 
Heartbeat CPU 0 instructions: 100000000 cycles: 152491117 heartbeat IPC: 0.25003 cumulative IPC: 0.363717 (Simulation time: 0 hr 10 min 1 sec) 
Heartbeat CPU 0 instructions: 110000000 cycles: 186195057 heartbeat IPC: 0.296701 cumulative IPC: 0.350521 (Simulation time: 0 hr 11 min 48 sec) 
Heartbeat CPU 0 instructions: 120000000 cycles: 218819045 heartbeat IPC: 0.306523 cumulative IPC: 0.343478 (Simulation time: 0 hr 13 min 14 sec) 
Heartbeat CPU 0 instructions: 130000003 cycles: 254729352 heartbeat IPC: 0.278472 cumulative IPC: 0.33374 (Simulation time: 0 hr 14 min 16 sec) 
Heartbeat CPU 0 instructions: 140000000 cycles: 276087724 heartbeat IPC: 0.4682 cumulative IPC: 0.34474 (Simulation time: 0 hr 14 min 51 sec) 
Heartbeat CPU 0 instructions: 150000000 cycles: 291055974 heartbeat IPC: 0.668081 cumulative IPC: 0.362274 (Simulation time: 0 hr 15 min 33 sec) 
Finished CPU 0 instructions: 100000002 cycles: 276034521 cumulative IPC: 0.362274 (Simulation time: 0 hr 15 min 33 sec) 

ChampSim completed all CPUs

Region of Interest Statistics

CPU 0 cumulative IPC: 0.362274 instructions: 100000002 cycles: 276034521
ITLB TOTAL     ACCESS:   16649377  HIT:   16649377  MISS:          0  HIT %:        100  MISS %:          0   MPKI: 0
ITLB LOAD TRANSLATION ACCESS:   16649377  HIT:   16649377  MISS:          0  HIT %:        100  MISS %:          0   MPKI: 0
ITLB PREFETCH  REQUESTED:          0  ISSUED:          0  USEFUL:          0  USELESS:          0
ITLB USEFUL LOAD PREFETCHES:          0 PREFETCH ISSUED TO LOWER LEVEL:          0  ACCURACY: -nan
ITLB TIMELY PREFETCHES:          0 LATE PREFETCHES: 0 DROPPED PREFETCHES: 0
ITLB PREFETCHES SAME FILL-ORIGIN LEVEL: 0 DIFFERENT FILL-ORIGIN LEVEL: 0
ITLB AVERAGE MISS LATENCY: -nan cycles
ITLB RQ	ACCESS:   20916644	FORWARD:          0	MERGED:    4267266	TO_CACHE:   16649378

DTLB TOTAL     ACCESS:   18241969  HIT:   18068360  MISS:     173609  HIT %:    99.0483  MISS %:   0.951701   MPKI: 1.73609
DTLB LOAD TRANSLATION ACCESS:   18241969  HIT:   18068360  MISS:     173609  HIT %:    99.0483  MISS %:   0.951701   MPKI: 1.73609
DTLB PREFETCH  REQUESTED:          0  ISSUED:          0  USEFUL:          0  USELESS:          0
DTLB USEFUL LOAD PREFETCHES:          0 PREFETCH ISSUED TO LOWER LEVEL:          0  ACCURACY: -nan
DTLB TIMELY PREFETCHES:          0 LATE PREFETCHES: 0 DROPPED PREFETCHES: 0
DTLB PREFETCHES SAME FILL-ORIGIN LEVEL: 0 DIFFERENT FILL-ORIGIN LEVEL: 0
DTLB AVERAGE MISS LATENCY: 36.0261 cycles
DTLB RQ	ACCESS:   19383424	FORWARD:          0	MERGED:    1130785	TO_CACHE:   18252639

STLB TOTAL     ACCESS:    1271161  HIT:    1170322  MISS:     100839  HIT %:    92.0672  MISS %:    7.93283   MPKI: 1.00839
STLB LOAD TRANSLATION ACCESS:     173609  HIT:     140807  MISS:      32802  HIT %:    81.1058  MISS %:    18.8942   MPKI: 0.32802
STLB TRANSLATION FROM L1D PREFETCHER ACCESS:    1097552  HIT:    1029515  MISS:      68037  HIT %:     93.801  MISS %:    6.19898   MPKI: 0.68037
STLB PREFETCH  REQUESTED:          0  ISSUED:          0  USEFUL:      56699  USELESS:      11248
STLB USEFUL LOAD PREFETCHES:      56699 PREFETCH ISSUED TO LOWER LEVEL:          0  ACCURACY: inf
STLB TIMELY PREFETCHES:      56699 LATE PREFETCHES: 258 DROPPED PREFETCHES: 0
STLB PREFETCHES SAME FILL-ORIGIN LEVEL: 0 DIFFERENT FILL-ORIGIN LEVEL: 0
STLB AVERAGE MISS LATENCY: 98.0858 cycles
STLB RQ	ACCESS:    3248996	FORWARD:          0	MERGED:    1976818	TO_CACHE:    1272178

STLB Hit, L1D data hit: 0
STLB Hit, L2C data hit: 0
STLB Hit, LLC data hit: 0
STLB Hit, LLC data miss: 0
STLB STLB hints to L2: 0
L1D TOTAL     ACCESS:   21547092  HIT:   17623821  MISS:    3923271  HIT %:    81.7921  MISS %:    18.2079   MPKI: 39.2327
L1D LOAD      ACCESS:   16142669  HIT:   15005761  MISS:    1136908  HIT %:    92.9571  MISS %:    7.04288   MPKI: 11.3691
L1D RFO       ACCESS:    2516356  HIT:    2418890  MISS:      97466  HIT %:    96.1267  MISS %:     3.8733   MPKI: 0.97466
L1D PREFETCH  ACCESS:    2888067  HIT:     199170  MISS:    2688897  HIT %:    6.89631  MISS %:    93.1037   MPKI: 26.889
AGUS PREFETCH L1 MISS: 0
L1D PREFETCH  REQUESTED:    6650429  ISSUED:    6201887  USEFUL:    1228252  USELESS:    1460840
L1D USEFUL LOAD PREFETCHES:    1228252 PREFETCH ISSUED TO LOWER LEVEL:    2724996  ACCURACY: 45.0735
L1D TIMELY PREFETCHES:    1228252 LATE PREFETCHES: 36099 DROPPED PREFETCHES: 0
L1D PREFETCHES SAME FILL-ORIGIN LEVEL: 2724996 DIFFERENT FILL-ORIGIN LEVEL: 0
L1D AVERAGE MISS LATENCY: 137.705 cycles
L1D RQ	ACCESS:   23558443	FORWARD:          0	MERGED:    7104088	TO_CACHE:   16433932
L1D WQ	ACCESS:    3048712	FORWARD:      20449	MERGED:      99220	TO_CACHE:    2949492
L1D PQ	ACCESS:    3126500	FORWARD:          0	MERGED:      51087	TO_CACHE:    3075387

L1D UNIQUE REGIONS ACCESSED: 0
L1D REGIONS CONFLICTS: 0
L1D Cross Page Prefetch Requests: 2413963
L1D Same Page Prefetch Requests: 2370693
L1D ROI Sum of L1D PQ occupancy: 70569202
L1D PREFETCHES PUSHED FROM L2C: 0
L1I TOTAL     ACCESS:   20916640  HIT:   20916623  MISS:         17  HIT %:    99.9999  MISS %: 8.1275e-05   MPKI: 0.00017
L1I LOAD      ACCESS:   20916640  HIT:   20916623  MISS:         17  HIT %:    99.9999  MISS %: 8.1275e-05   MPKI: 0.00017
L1I PREFETCH  REQUESTED:          0  ISSUED:          0  USEFUL:          0  USELESS:          0
L1I USEFUL LOAD PREFETCHES:          0 PREFETCH ISSUED TO LOWER LEVEL:          0  ACCURACY: -nan
L1I TIMELY PREFETCHES:          0 LATE PREFETCHES: 0 DROPPED PREFETCHES: 0
L1I PREFETCHES SAME FILL-ORIGIN LEVEL: 0 DIFFERENT FILL-ORIGIN LEVEL: 0
L1I AVERAGE MISS LATENCY: 218.529 cycles
L1I RQ	ACCESS:   33351002	FORWARD:          0	MERGED:   12434358	TO_CACHE:   20916644

BTB TOTAL     ACCESS:   20200236  HIT:   20199964  MISS:        272  HIT %:    99.9987  MISS %: 0.00134652   MPKI: 0.00272
BTB BRANCH_DIRECT_JUMP	ACCESS:      16039  HIT:      15994  MISS:         45
BTB BRANCH_INDIRECT	ACCESS:          1  HIT:          0  MISS:          1
BTB BRANCH_CONDITIONAL	ACCESS:   20183882  HIT:   20183780  MISS:        102
BTB BRANCH_DIRECT_CALL	ACCESS:        154  HIT:        111  MISS:         43
BTB BRANCH_INDIRECT_CALL	ACCESS:          3  HIT:          0  MISS:          3
BTB BRANCH_RETURN	ACCESS:        157  HIT:         79  MISS:         78
BTB BRANCH_OTHER ACCESS:          0  HIT:          0  MISS:          0

L2C TOTAL     ACCESS:    4445026  HIT:    1430530  MISS:    3014496  HIT %:    32.1827  MISS %:    67.8173   MPKI: 30.145
L2C LOAD      ACCESS:    1100825  HIT:     461322  MISS:     639503  HIT %:    41.9069  MISS %:    58.0931   MPKI: 6.39503
L2C DATA LOAD MPKI: 6.39486
L2C INSTRUCTION LOAD MPKI: 0.00017
L2C RFO       ACCESS:      97466  HIT:       4229  MISS:      93237  HIT %:    4.33895  MISS %:    95.6611   MPKI: 0.93237
L2C PREFETCH  ACCESS:    2724992  HIT:     464470  MISS:    2260522  HIT %:    17.0448  MISS %:    82.9552   MPKI: 22.6052
AGUS PREFETCH L1 MISS: 0
L2C DATA PREFETCH MPKI: 22.6052
L2C INSTRUCTION PREFETCH MPKI: 0
L2C WRITEBACK ACCESS:     420366  HIT:     420347  MISS:         19  HIT %:    99.9955  MISS %: 0.00451987   MPKI: 0.00019
L2C LOAD TRANSLATION ACCESS:      32913  HIT:      22435  MISS:      10478  HIT %:    68.1646  MISS %:    31.8354   MPKI: 0.10478
L2C TRANSLATION FROM L1D PREFETCHER ACCESS:      68464  HIT:      57727  MISS:      10737  HIT %:    84.3173  MISS %:    15.6827   MPKI: 0.10737
L2C PREFETCH  REQUESTED:          0  ISSUED:          0  USEFUL:      29575  USELESS:    2242032
L2C USEFUL LOAD PREFETCHES:      29575 PREFETCH ISSUED TO LOWER LEVEL:    2260522  ACCURACY: 1.30833
L2C TIMELY PREFETCHES:      29575 LATE PREFETCHES: 0 DROPPED PREFETCHES: 0
L2C PREFETCHES SAME FILL-ORIGIN LEVEL: 0 DIFFERENT FILL-ORIGIN LEVEL: 0
L2C AVERAGE MISS LATENCY: 160.035 cycles
L2C RQ	ACCESS:    1299670	FORWARD:          0	MERGED:          0	TO_CACHE:    1299669
L2C WQ	ACCESS:     420366	FORWARD:          5	MERGED:          0	TO_CACHE:     420366
L2C PQ	ACCESS:    2724996	FORWARD:          0	MERGED:          0	TO_CACHE:    2724992

L2C Instructions Evicting Data 16
L2C Translations Evicting Data 20834
L2C Data Evicting Data 2972346
L2C Instructions Evicting Instructions 0
L2C Translations Evicting Instructions 1
L2C Data Evicting Instructions 16
L2C Instructions Evicting Translations 1
L2C Translations Evicting Translations 380
L2C Data Evicting Translations 20883
L2C Dense regions hint from L2: 0
PSCL5 TOTAL     ACCESS:     100839  HIT:     100839  MISS:          0  HIT %:        100  MISS %:          0   MPKI: 0
PSCL5 LOAD TRANSLATION ACCESS:      32544  HIT:      32544  MISS:          0  HIT %:        100  MISS %:          0   MPKI: 0
PSCL5 TRANSLATION FROM L1D PREFETCHER ACCESS:      68295  HIT:      68295  MISS:          0  HIT %:        100  MISS %:          0   MPKI: 0
PSCL5 PREFETCH  REQUESTED:          0  ISSUED:          0  USEFUL:          0  USELESS:          0
PSCL5 USEFUL LOAD PREFETCHES:          0 PREFETCH ISSUED TO LOWER LEVEL:          0  ACCURACY: -nan
PSCL5 TIMELY PREFETCHES:          0 LATE PREFETCHES: 0 DROPPED PREFETCHES: 0
PSCL5 PREFETCHES SAME FILL-ORIGIN LEVEL: 0 DIFFERENT FILL-ORIGIN LEVEL: 0

PSCL4 TOTAL     ACCESS:     100839  HIT:     100839  MISS:          0  HIT %:        100  MISS %:          0   MPKI: 0
PSCL4 LOAD TRANSLATION ACCESS:      32544  HIT:      32544  MISS:          0  HIT %:        100  MISS %:          0   MPKI: 0
PSCL4 TRANSLATION FROM L1D PREFETCHER ACCESS:      68295  HIT:      68295  MISS:          0  HIT %:        100  MISS %:          0   MPKI: 0
PSCL4 PREFETCH  REQUESTED:          0  ISSUED:          0  USEFUL:          0  USELESS:          0
PSCL4 USEFUL LOAD PREFETCHES:          0 PREFETCH ISSUED TO LOWER LEVEL:          0  ACCURACY: -nan
PSCL4 TIMELY PREFETCHES:          0 LATE PREFETCHES: 0 DROPPED PREFETCHES: 0
PSCL4 PREFETCHES SAME FILL-ORIGIN LEVEL: 0 DIFFERENT FILL-ORIGIN LEVEL: 0

PSCL3 TOTAL     ACCESS:     100839  HIT:     100839  MISS:          0  HIT %:        100  MISS %:          0   MPKI: 0
PSCL3 LOAD TRANSLATION ACCESS:      32544  HIT:      32544  MISS:          0  HIT %:        100  MISS %:          0   MPKI: 0
PSCL3 TRANSLATION FROM L1D PREFETCHER ACCESS:      68295  HIT:      68295  MISS:          0  HIT %:        100  MISS %:          0   MPKI: 0
PSCL3 PREFETCH  REQUESTED:          0  ISSUED:          0  USEFUL:          0  USELESS:          0
PSCL3 USEFUL LOAD PREFETCHES:          0 PREFETCH ISSUED TO LOWER LEVEL:          0  ACCURACY: -nan
PSCL3 TIMELY PREFETCHES:          0 LATE PREFETCHES: 0 DROPPED PREFETCHES: 0
PSCL3 PREFETCHES SAME FILL-ORIGIN LEVEL: 0 DIFFERENT FILL-ORIGIN LEVEL: 0

PSCL2 TOTAL     ACCESS:     100839  HIT:     100301  MISS:        538  HIT %:    99.4665  MISS %:   0.533524   MPKI: 0.00538
PSCL2 LOAD TRANSLATION ACCESS:      32713  HIT:      32175  MISS:        538  HIT %:    98.3554  MISS %:    1.64461   MPKI: 0.00538
PSCL2 TRANSLATION FROM L1D PREFETCHER ACCESS:      68126  HIT:      68126  MISS:          0  HIT %:        100  MISS %:          0   MPKI: 0
PSCL2 PREFETCH  REQUESTED:          0  ISSUED:          0  USEFUL:          0  USELESS:          0
PSCL2 USEFUL LOAD PREFETCHES:          0 PREFETCH ISSUED TO LOWER LEVEL:          0  ACCURACY: -nan
PSCL2 TIMELY PREFETCHES:          0 LATE PREFETCHES: 0 DROPPED PREFETCHES: 0
PSCL2 PREFETCHES SAME FILL-ORIGIN LEVEL: 0 DIFFERENT FILL-ORIGIN LEVEL: 0

LLC TOTAL     ACCESS:    3385122  HIT:     767585  MISS:    2617537  HIT %:    22.6753  MISS %:    77.3247   MPKI: 26.1754
LLC LOAD      ACCESS:     639501  HIT:     129145  MISS:     510356  HIT %:    20.1947  MISS %:    79.8053   MPKI: 5.10356
LLC RFO       ACCESS:      93237  HIT:       3445  MISS:      89792  HIT %:    3.69489  MISS %:    96.3051   MPKI: 0.89792
LLC PREFETCH  ACCESS:    2260521  HIT:     265405  MISS:    1995116  HIT %:    11.7409  MISS %:    88.2591   MPKI: 19.9512
AGUS PREFETCH L1 MISS: 0
LLC WRITEBACK ACCESS:     370648  HIT:     368128  MISS:       2520  HIT %:    99.3201  MISS %:    0.67989   MPKI: 0.0252
LLC LOAD TRANSLATION ACCESS:      10478  HIT:        857  MISS:       9621  HIT %:    8.17904  MISS %:     91.821   MPKI: 0.09621
LLC TRANSLATION FROM L1D PREFETCHER ACCESS:      10737  HIT:        605  MISS:      10132  HIT %:    5.63472  MISS %:    94.3653   MPKI: 0.10132
LLC PREFETCH  REQUESTED:          0  ISSUED:          0  USEFUL:      38193  USELESS:    1973593
LLC USEFUL LOAD PREFETCHES:      38193 PREFETCH ISSUED TO LOWER LEVEL:    1995116  ACCURACY: 1.91432
LLC TIMELY PREFETCHES:      38193 LATE PREFETCHES: 0 DROPPED PREFETCHES: 0
LLC PREFETCHES SAME FILL-ORIGIN LEVEL: 0 DIFFERENT FILL-ORIGIN LEVEL: 0
LLC AVERAGE MISS LATENCY: 149.725 cycles
LLC RQ	ACCESS:     753956	FORWARD:          0	MERGED:          0	TO_CACHE:     753954
LLC WQ	ACCESS:     370648	FORWARD:          3	MERGED:          0	TO_CACHE:     370648
LLC PQ	ACCESS:    2260522	FORWARD:          0	MERGED:          0	TO_CACHE:    2260521

LLC Dense regions hint to LLC: 0

RAW hits: 145635
Loads Generated: 23704079
Loads sent to L1D: 23558443
Stores Generated: 3048712
Stores sent to L1D: 3048712
Major fault: 0 Minor fault: 27625
Allocated PAGES: 27625
Prefetcher final stats
Training Unit Size: 142
Addr table size: 575609 575609


Triggers: 2787727
No Prediction: 780658 28.0034
Stream end: 1621890
No translation: 1640484938 58846.7
Predictions: 4784656 171.633


Stream divergence: 572538 20.5378
Stream divergence -- new stream: 0

DRAM Statistics
 CHANNEL 0
 RQ ROW_BUFFER_HIT:    1304802  ROW_BUFFER_MISS:    1310136
 DBUS_CONGESTED:        679
 WQ ROW_BUFFER_HIT:      79970  ROW_BUFFER_MISS:     286702  FULL:          0

 AVG_CONGESTED_CYCLE: 4
 All warmup complete: 2
Channel 0 Bank busy for read cycles: 0
Channel 0 Bank busy for write cycles: 0
Channel 0
Rank 0
0banks busy for read cycles: 168478475
0banks busy for write cycles: 112810
1banks busy for read cycles: 30522642
1banks busy for write cycles: 12930052
2banks busy for read cycles: 9574991
2banks busy for write cycles: 5490297
3banks busy for read cycles: 6531937
3banks busy for write cycles: 2992473
4banks busy for read cycles: 5454741
4banks busy for write cycles: 1821672
5banks busy for read cycles: 5909591
5banks busy for write cycles: 1329772
6banks busy for read cycles: 6906748
6banks busy for write cycles: 1088018
7banks busy for read cycles: 6059554
7banks busy for write cycles: 1138145
8banks busy for read cycles: 7190406
8banks busy for write cycles: 2502198

CPU 0 Branch Prediction Accuracy: 87.3292% MPKI: 27.6799 Average ROB Occupancy at Mispredict: 8.47055
Branch types
NOT_BRANCH: 78154779 78.1548%
BRANCH_DIRECT_JUMP: 16039 0.016039%
BRANCH_INDIRECT: 1 1e-06%
BRANCH_CONDITIONAL: 21829085 21.8291%
BRANCH_DIRECT_CALL: 154 0.000154%
BRANCH_INDIRECT_CALL: 3 3e-06%
BRANCH_RETURN: 157 0.000157%
BRANCH_OTHER: 0 0%

DRAM PAGES: 1048576
Allocated PAGES: 27625
