
*** ChampSim Multicore Out-of-Order Simulator ***

Warmup Instructions: 50000000
Simulation Instructions: 100000000
Number of CPUs: 1
LLC sets: 2048
LLC ways: 16
Off-chip DRAM Size: 4096 MB Channels: 1 Width: 64-bit Data Rate: 6400 MT/s
CPU 0 runs ./traces/GAP/bfs-10.trace.gz
.gz
CPU 0 Bimodal branch predictor
BTB has LRU replacement policy
ITLB has LRU replacement policy
DTLB has LRU replacement policy
STLB has LRU replacement policy
L1I has LRU replacement policy
L1D has LRU replacement policy
L2C has LRU replacement policy
LLC has LRU replacement policy
Heartbeat CPU 0 instructions: 10000000 cycles: 2953906 heartbeat IPC: 3.38535 cumulative IPC: 3.38535 (Simulation time: 0 hr 0 min 17 sec) 
Heartbeat CPU 0 instructions: 20000000 cycles: 5901490 heartbeat IPC: 3.39261 cumulative IPC: 3.38897 (Simulation time: 0 hr 0 min 36 sec) 
Heartbeat CPU 0 instructions: 30000002 cycles: 8835414 heartbeat IPC: 3.40841 cumulative IPC: 3.39543 (Simulation time: 0 hr 0 min 54 sec) 
Heartbeat CPU 0 instructions: 40000000 cycles: 11769628 heartbeat IPC: 3.40807 cumulative IPC: 3.39858 (Simulation time: 0 hr 1 min 13 sec) 
Heartbeat CPU 0 instructions: 50000003 cycles: 14702478 heartbeat IPC: 3.40965 cumulative IPC: 3.40079 (Simulation time: 0 hr 1 min 31 sec) 

Warmup complete CPU 0 instructions: 50000003 cycles: 14702478 (Simulation time: 0 hr 1 min 31 sec) 

Heartbeat CPU 0 instructions: 60000000 cycles: 71255568 heartbeat IPC: 0.176825 cumulative IPC: 0.176825 (Simulation time: 0 hr 2 min 12 sec) 
Heartbeat CPU 0 instructions: 70000003 cycles: 139389727 heartbeat IPC: 0.146769 cumulative IPC: 0.160401 (Simulation time: 0 hr 2 min 57 sec) 
Heartbeat CPU 0 instructions: 80000000 cycles: 195952321 heartbeat IPC: 0.176795 cumulative IPC: 0.165517 (Simulation time: 0 hr 3 min 35 sec) 
Heartbeat CPU 0 instructions: 90000000 cycles: 208851426 heartbeat IPC: 0.775248 cumulative IPC: 0.206027 (Simulation time: 0 hr 4 min 3 sec) 
Heartbeat CPU 0 instructions: 100000000 cycles: 229171021 heartbeat IPC: 0.492136 cumulative IPC: 0.233134 (Simulation time: 0 hr 4 min 39 sec) 
Heartbeat CPU 0 instructions: 110000001 cycles: 274526352 heartbeat IPC: 0.220481 cumulative IPC: 0.230926 (Simulation time: 0 hr 5 min 17 sec) 
Heartbeat CPU 0 instructions: 120000000 cycles: 335241028 heartbeat IPC: 0.164705 cumulative IPC: 0.218382 (Simulation time: 0 hr 5 min 57 sec) 
Heartbeat CPU 0 instructions: 130000002 cycles: 396033063 heartbeat IPC: 0.164495 cumulative IPC: 0.209792 (Simulation time: 0 hr 6 min 38 sec) 
Heartbeat CPU 0 instructions: 140000000 cycles: 461641988 heartbeat IPC: 0.152418 cumulative IPC: 0.20137 (Simulation time: 0 hr 7 min 20 sec) 
Heartbeat CPU 0 instructions: 150000000 cycles: 532870965 heartbeat IPC: 0.140392 cumulative IPC: 0.192987 (Simulation time: 0 hr 8 min 3 sec) 
Finished CPU 0 instructions: 100000000 cycles: 518168504 cumulative IPC: 0.192987 (Simulation time: 0 hr 8 min 3 sec) 

ChampSim completed all CPUs

Region of Interest Statistics

CPU 0 cumulative IPC: 0.192987 instructions: 100000000 cycles: 518168504
ITLB TOTAL     ACCESS:   16272994  HIT:   16272994  MISS:          0  HIT %:        100  MISS %:          0   MPKI: 0
ITLB LOAD TRANSLATION ACCESS:   16272994  HIT:   16272994  MISS:          0  HIT %:        100  MISS %:          0   MPKI: 0
ITLB PREFETCH  REQUESTED:          0  ISSUED:          0  USEFUL:          0  USELESS:          0
ITLB USEFUL LOAD PREFETCHES:          0 PREFETCH ISSUED TO LOWER LEVEL:          0  ACCURACY: -nan
ITLB TIMELY PREFETCHES:          0 LATE PREFETCHES: 0 DROPPED PREFETCHES: 0
ITLB PREFETCHES SAME FILL-ORIGIN LEVEL: 0 DIFFERENT FILL-ORIGIN LEVEL: 0
ITLB AVERAGE MISS LATENCY: -nan cycles
ITLB RQ	ACCESS:   20994811	FORWARD:          0	MERGED:    4721817	TO_CACHE:   16272994

DTLB TOTAL     ACCESS:   19773890  HIT:   19661163  MISS:     112727  HIT %:    99.4299  MISS %:    0.57008   MPKI: 1.12727
DTLB LOAD TRANSLATION ACCESS:   19773890  HIT:   19661163  MISS:     112727  HIT %:    99.4299  MISS %:    0.57008   MPKI: 1.12727
DTLB PREFETCH  REQUESTED:          0  ISSUED:          0  USEFUL:          0  USELESS:          0
DTLB USEFUL LOAD PREFETCHES:          0 PREFETCH ISSUED TO LOWER LEVEL:          0  ACCURACY: -nan
DTLB TIMELY PREFETCHES:          0 LATE PREFETCHES: 0 DROPPED PREFETCHES: 0
DTLB PREFETCHES SAME FILL-ORIGIN LEVEL: 0 DIFFERENT FILL-ORIGIN LEVEL: 0
DTLB AVERAGE MISS LATENCY: 67.6418 cycles
DTLB RQ	ACCESS:   21337191	FORWARD:          0	MERGED:    1560084	TO_CACHE:   19777107

STLB TOTAL     ACCESS:     112727  HIT:      13470  MISS:      99257  HIT %:    11.9492  MISS %:    88.0508   MPKI: 0.99257
STLB LOAD TRANSLATION ACCESS:     112727  HIT:      13470  MISS:      99257  HIT %:    11.9492  MISS %:    88.0508   MPKI: 0.99257
STLB PREFETCH  REQUESTED:          0  ISSUED:          0  USEFUL:          0  USELESS:          0
STLB USEFUL LOAD PREFETCHES:          0 PREFETCH ISSUED TO LOWER LEVEL:          0  ACCURACY: -nan
STLB TIMELY PREFETCHES:          0 LATE PREFETCHES: 0 DROPPED PREFETCHES: 0
STLB PREFETCHES SAME FILL-ORIGIN LEVEL: 0 DIFFERENT FILL-ORIGIN LEVEL: 0
STLB AVERAGE MISS LATENCY: 66.5968 cycles
STLB RQ	ACCESS:     112727	FORWARD:          0	MERGED:          0	TO_CACHE:     112727

STLB Hit, L1D data hit: 0
STLB Hit, L2C data hit: 0
STLB Hit, LLC data hit: 0
STLB Hit, LLC data miss: 0
STLB STLB hints to L2: 0
L1D TOTAL     ACCESS:   20706885  HIT:   17759090  MISS:    2947795  HIT %:    85.7642  MISS %:    14.2358   MPKI: 29.4779
L1D LOAD      ACCESS:   17701863  HIT:   14835228  MISS:    2866635  HIT %:     83.806  MISS %:     16.194   MPKI: 28.6664
L1D RFO       ACCESS:    3005022  HIT:    2923862  MISS:      81160  HIT %:    97.2992  MISS %:    2.70081   MPKI: 0.8116
L1D PREFETCH  REQUESTED:          0  ISSUED:          0  USEFUL:          0  USELESS:          0
L1D USEFUL LOAD PREFETCHES:          0 PREFETCH ISSUED TO LOWER LEVEL:          0  ACCURACY: -nan
L1D TIMELY PREFETCHES:          0 LATE PREFETCHES: 0 DROPPED PREFETCHES: 0
L1D PREFETCHES SAME FILL-ORIGIN LEVEL: 0 DIFFERENT FILL-ORIGIN LEVEL: 0
L1D AVERAGE MISS LATENCY: 112.641 cycles
L1D RQ	ACCESS:   25410502	FORWARD:          0	MERGED:    7164381	TO_CACHE:   18240698
L1D WQ	ACCESS:    3129175	FORWARD:       5423	MERGED:      32682	TO_CACHE:    3096493

L1D UNIQUE REGIONS ACCESSED: 0
L1D REGIONS CONFLICTS: 0
L1D Cross Page Prefetch Requests: 0
L1D Same Page Prefetch Requests: 0
L1D ROI Sum of L1D PQ occupancy: 0
L1D PREFETCHES PUSHED FROM L2C: 0
L1I TOTAL     ACCESS:   20994809  HIT:   20994794  MISS:         15  HIT %:    99.9999  MISS %: 7.14462e-05   MPKI: 0.00015
L1I LOAD      ACCESS:   20994809  HIT:   20994794  MISS:         15  HIT %:    99.9999  MISS %: 7.14462e-05   MPKI: 0.00015
L1I PREFETCH  REQUESTED:          0  ISSUED:          0  USEFUL:          0  USELESS:          0
L1I USEFUL LOAD PREFETCHES:          0 PREFETCH ISSUED TO LOWER LEVEL:          0  ACCURACY: -nan
L1I TIMELY PREFETCHES:          0 LATE PREFETCHES: 0 DROPPED PREFETCHES: 0
L1I PREFETCHES SAME FILL-ORIGIN LEVEL: 0 DIFFERENT FILL-ORIGIN LEVEL: 0
L1I AVERAGE MISS LATENCY: 195.667 cycles
L1I RQ	ACCESS:   32059969	FORWARD:          0	MERGED:   11065158	TO_CACHE:   20994811

BTB TOTAL     ACCESS:   20135180  HIT:   20134924  MISS:        256  HIT %:    99.9987  MISS %: 0.00127141   MPKI: 0.00256
BTB BRANCH_DIRECT_JUMP	ACCESS:       3705  HIT:       3661  MISS:         44
BTB BRANCH_INDIRECT	ACCESS:          1  HIT:          0  MISS:          1
BTB BRANCH_CONDITIONAL	ACCESS:   20131240  HIT:   20131139  MISS:        101
BTB BRANCH_DIRECT_CALL	ACCESS:        114  HIT:         72  MISS:         42
BTB BRANCH_INDIRECT_CALL	ACCESS:          3  HIT:          0  MISS:          3
BTB BRANCH_RETURN	ACCESS:        117  HIT:         52  MISS:         65
BTB BRANCH_OTHER ACCESS:          0  HIT:          0  MISS:          0

L2C TOTAL     ACCESS:    3349983  HIT:    1468587  MISS:    1881396  HIT %:    43.8386  MISS %:    56.1614   MPKI: 18.814
L2C LOAD      ACCESS:    2866650  HIT:    1079252  MISS:    1787398  HIT %:    37.6485  MISS %:    62.3515   MPKI: 17.874
L2C DATA LOAD MPKI: 17.8738
L2C INSTRUCTION LOAD MPKI: 0.00015
L2C RFO       ACCESS:      81160  HIT:       6498  MISS:      74662  HIT %:    8.00641  MISS %:    91.9936   MPKI: 0.74662
L2C WRITEBACK ACCESS:     302511  HIT:     302498  MISS:         13  HIT %:    99.9957  MISS %: 0.00429736   MPKI: 0.00013
L2C LOAD TRANSLATION ACCESS:      99662  HIT:      80339  MISS:      19323  HIT %:    80.6115  MISS %:    19.3885   MPKI: 0.19323
L2C PREFETCH  REQUESTED:          0  ISSUED:          0  USEFUL:          0  USELESS:          0
L2C USEFUL LOAD PREFETCHES:          0 PREFETCH ISSUED TO LOWER LEVEL:          0  ACCURACY: -nan
L2C TIMELY PREFETCHES:          0 LATE PREFETCHES: 0 DROPPED PREFETCHES: 0
L2C PREFETCHES SAME FILL-ORIGIN LEVEL: 0 DIFFERENT FILL-ORIGIN LEVEL: 0
L2C AVERAGE MISS LATENCY: 154.905 cycles
L2C RQ	ACCESS:    3047472	FORWARD:          0	MERGED:          0	TO_CACHE:    3047472
L2C WQ	ACCESS:     302511	FORWARD:          0	MERGED:          0	TO_CACHE:     302511

L2C Instructions Evicting Data 15
L2C Translations Evicting Data 18887
L2C Data Evicting Data 1843148
L2C Instructions Evicting Instructions 0
L2C Translations Evicting Instructions 1
L2C Data Evicting Instructions 14
L2C Instructions Evicting Translations 0
L2C Translations Evicting Translations 435
L2C Data Evicting Translations 18883
L2C Dense regions hint from L2: 0
PSCL5 TOTAL     ACCESS:      99257  HIT:      99257  MISS:          0  HIT %:        100  MISS %:          0   MPKI: 0
PSCL5 LOAD TRANSLATION ACCESS:      99257  HIT:      99257  MISS:          0  HIT %:        100  MISS %:          0   MPKI: 0
PSCL5 PREFETCH  REQUESTED:          0  ISSUED:          0  USEFUL:          0  USELESS:          0
PSCL5 USEFUL LOAD PREFETCHES:          0 PREFETCH ISSUED TO LOWER LEVEL:          0  ACCURACY: -nan
PSCL5 TIMELY PREFETCHES:          0 LATE PREFETCHES: 0 DROPPED PREFETCHES: 0
PSCL5 PREFETCHES SAME FILL-ORIGIN LEVEL: 0 DIFFERENT FILL-ORIGIN LEVEL: 0

PSCL4 TOTAL     ACCESS:      99257  HIT:      99257  MISS:          0  HIT %:        100  MISS %:          0   MPKI: 0
PSCL4 LOAD TRANSLATION ACCESS:      99257  HIT:      99257  MISS:          0  HIT %:        100  MISS %:          0   MPKI: 0
PSCL4 PREFETCH  REQUESTED:          0  ISSUED:          0  USEFUL:          0  USELESS:          0
PSCL4 USEFUL LOAD PREFETCHES:          0 PREFETCH ISSUED TO LOWER LEVEL:          0  ACCURACY: -nan
PSCL4 TIMELY PREFETCHES:          0 LATE PREFETCHES: 0 DROPPED PREFETCHES: 0
PSCL4 PREFETCHES SAME FILL-ORIGIN LEVEL: 0 DIFFERENT FILL-ORIGIN LEVEL: 0

PSCL3 TOTAL     ACCESS:      99257  HIT:      99257  MISS:          0  HIT %:        100  MISS %:          0   MPKI: 0
PSCL3 LOAD TRANSLATION ACCESS:      99257  HIT:      99257  MISS:          0  HIT %:        100  MISS %:          0   MPKI: 0
PSCL3 PREFETCH  REQUESTED:          0  ISSUED:          0  USEFUL:          0  USELESS:          0
PSCL3 USEFUL LOAD PREFETCHES:          0 PREFETCH ISSUED TO LOWER LEVEL:          0  ACCURACY: -nan
PSCL3 TIMELY PREFETCHES:          0 LATE PREFETCHES: 0 DROPPED PREFETCHES: 0
PSCL3 PREFETCHES SAME FILL-ORIGIN LEVEL: 0 DIFFERENT FILL-ORIGIN LEVEL: 0

PSCL2 TOTAL     ACCESS:      99257  HIT:      98845  MISS:        412  HIT %:    99.5849  MISS %:   0.415084   MPKI: 0.00412
PSCL2 LOAD TRANSLATION ACCESS:      99257  HIT:      98845  MISS:        412  HIT %:    99.5849  MISS %:   0.415084   MPKI: 0.00412
PSCL2 PREFETCH  REQUESTED:          0  ISSUED:          0  USEFUL:          0  USELESS:          0
PSCL2 USEFUL LOAD PREFETCHES:          0 PREFETCH ISSUED TO LOWER LEVEL:          0  ACCURACY: -nan
PSCL2 TIMELY PREFETCHES:          0 LATE PREFETCHES: 0 DROPPED PREFETCHES: 0
PSCL2 PREFETCHES SAME FILL-ORIGIN LEVEL: 0 DIFFERENT FILL-ORIGIN LEVEL: 0

LLC TOTAL     ACCESS:    2183200  HIT:     370415  MISS:    1812785  HIT %:    16.9666  MISS %:    83.0334   MPKI: 18.1278
LLC LOAD      ACCESS:    1787398  HIT:      69892  MISS:    1717506  HIT %:    3.91027  MISS %:    96.0897   MPKI: 17.1751
LLC RFO       ACCESS:      74662  HIT:       2933  MISS:      71729  HIT %:    3.92837  MISS %:    96.0716   MPKI: 0.71729
LLC WRITEBACK ACCESS:     301817  HIT:     297007  MISS:       4810  HIT %:    98.4063  MISS %:    1.59368   MPKI: 0.0481
LLC LOAD TRANSLATION ACCESS:      19323  HIT:        583  MISS:      18740  HIT %:    3.01713  MISS %:    96.9829   MPKI: 0.1874
LLC PREFETCH  REQUESTED:          0  ISSUED:          0  USEFUL:          0  USELESS:          0
LLC USEFUL LOAD PREFETCHES:          0 PREFETCH ISSUED TO LOWER LEVEL:          0  ACCURACY: -nan
LLC TIMELY PREFETCHES:          0 LATE PREFETCHES: 0 DROPPED PREFETCHES: 0
LLC PREFETCHES SAME FILL-ORIGIN LEVEL: 0 DIFFERENT FILL-ORIGIN LEVEL: 0
LLC AVERAGE MISS LATENCY: 129.63 cycles
LLC RQ	ACCESS:    1881383	FORWARD:          0	MERGED:          0	TO_CACHE:    1881383
LLC WQ	ACCESS:     301817	FORWARD:          0	MERGED:          0	TO_CACHE:     301817

LLC Dense regions hint to LLC: 0

RAW hits: 51010
Loads Generated: 25461513
Loads sent to L1D: 25410502
Stores Generated: 3129175
Stores sent to L1D: 3129175
Major fault: 0 Minor fault: 27202
Allocated PAGES: 27202

DRAM Statistics
 CHANNEL 0
 RQ ROW_BUFFER_HIT:     761074  ROW_BUFFER_MISS:    1046897
 DBUS_CONGESTED:         59
 WQ ROW_BUFFER_HIT:      64120  ROW_BUFFER_MISS:     234123  FULL:          0

 AVG_CONGESTED_CYCLE: 4
 All warmup complete: 2
Channel 0 Bank busy for read cycles: 0
Channel 0 Bank busy for write cycles: 0
Channel 0
Rank 0
0banks busy for read cycles: 294719867
0banks busy for write cycles: 257558
1banks busy for read cycles: 158458252
1banks busy for write cycles: 43803939
2banks busy for read cycles: 16277372
2banks busy for write cycles: 3111660
3banks busy for read cycles: 838653
3banks busy for write cycles: 178873
4banks busy for read cycles: 168505
4banks busy for write cycles: 17384
5banks busy for read cycles: 81300
5banks busy for write cycles: 4374
6banks busy for read cycles: 27395
6banks busy for write cycles: 8036
7banks busy for read cycles: 11988
7banks busy for write cycles: 39504
8banks busy for read cycles: 29429
8banks busy for write cycles: 134416

CPU 0 Branch Prediction Accuracy: 82.0873% MPKI: 38.1202 Average ROB Occupancy at Mispredict: 7.3604
Branch types
NOT_BRANCH: 78718951 78.719%
BRANCH_DIRECT_JUMP: 3705 0.003705%
BRANCH_INDIRECT: 1 1e-06%
BRANCH_CONDITIONAL: 21277098 21.2771%
BRANCH_DIRECT_CALL: 114 0.000114%
BRANCH_INDIRECT_CALL: 3 3e-06%
BRANCH_RETURN: 117 0.000117%
BRANCH_OTHER: 0 0%

DRAM PAGES: 1048576
Allocated PAGES: 27202
