
*** ChampSim Multicore Out-of-Order Simulator ***

Warmup Instructions: 50000000
Simulation Instructions: 100000000
Number of CPUs: 1
LLC sets: 2048
LLC ways: 16
Off-chip DRAM Size: 4096 MB Channels: 1 Width: 64-bit Data Rate: 6400 MT/s
CPU 0 runs ./traces/GAP/bfs-10.trace.gz
.gz
CPU 0 Bimodal branch predictor
BTB has LRU replacement policy
ITLB has LRU replacement policy
DTLB has LRU replacement policy
STLB has LRU replacement policy
L1I has LRU replacement policy
L1D has LRU replacement policy
L2C has LRU replacement policy
LLC has LRU replacement policy
Heartbeat CPU 0 instructions: 10000000 cycles: 2953906 heartbeat IPC: 3.38535 cumulative IPC: 3.38535 (Simulation time: 0 hr 1 min 59 sec) 
Heartbeat CPU 0 instructions: 20000000 cycles: 5901472 heartbeat IPC: 3.39263 cumulative IPC: 3.38898 (Simulation time: 0 hr 5 min 12 sec) 
Heartbeat CPU 0 instructions: 30000003 cycles: 8835395 heartbeat IPC: 3.40841 cumulative IPC: 3.39543 (Simulation time: 0 hr 8 min 27 sec) 
Heartbeat CPU 0 instructions: 40000000 cycles: 11769610 heartbeat IPC: 3.40807 cumulative IPC: 3.39858 (Simulation time: 0 hr 11 min 42 sec) 
Heartbeat CPU 0 instructions: 50000003 cycles: 14702446 heartbeat IPC: 3.40967 cumulative IPC: 3.40079 (Simulation time: 0 hr 14 min 57 sec) 

Warmup complete CPU 0 instructions: 50000003 cycles: 14702446 (Simulation time: 0 hr 14 min 57 sec) 

Heartbeat CPU 0 instructions: 60000000 cycles: 54347906 heartbeat IPC: 0.252236 cumulative IPC: 0.252236 (Simulation time: 0 hr 15 min 37 sec) 
Heartbeat CPU 0 instructions: 70000003 cycles: 98812614 heartbeat IPC: 0.224898 cumulative IPC: 0.237783 (Simulation time: 0 hr 16 min 19 sec) 
Heartbeat CPU 0 instructions: 80000000 cycles: 131081440 heartbeat IPC: 0.309897 cumulative IPC: 0.257778 (Simulation time: 0 hr 16 min 53 sec) 
Heartbeat CPU 0 instructions: 90000000 cycles: 142670472 heartbeat IPC: 0.862885 cumulative IPC: 0.312578 (Simulation time: 0 hr 17 min 22 sec) 
Heartbeat CPU 0 instructions: 100000000 cycles: 158335056 heartbeat IPC: 0.638383 cumulative IPC: 0.34811 (Simulation time: 0 hr 17 min 52 sec) 
Heartbeat CPU 0 instructions: 110000001 cycles: 186498047 heartbeat IPC: 0.355076 cumulative IPC: 0.349252 (Simulation time: 0 hr 18 min 28 sec) 
Heartbeat CPU 0 instructions: 120000000 cycles: 230584929 heartbeat IPC: 0.226825 cumulative IPC: 0.32425 (Simulation time: 0 hr 19 min 8 sec) 
Heartbeat CPU 0 instructions: 130000002 cycles: 274660490 heartbeat IPC: 0.226883 cumulative IPC: 0.307742 (Simulation time: 0 hr 19 min 47 sec) 
Heartbeat CPU 0 instructions: 140000000 cycles: 319673529 heartbeat IPC: 0.222158 cumulative IPC: 0.29511 (Simulation time: 0 hr 20 min 27 sec) 
Heartbeat CPU 0 instructions: 150000000 cycles: 363686022 heartbeat IPC: 0.227208 cumulative IPC: 0.286546 (Simulation time: 0 hr 21 min 7 sec) 
Finished CPU 0 instructions: 100000000 cycles: 348983593 cumulative IPC: 0.286546 (Simulation time: 0 hr 21 min 7 sec) 

ChampSim completed all CPUs

Region of Interest Statistics

CPU 0 cumulative IPC: 0.286546 instructions: 100000000 cycles: 348983593
ITLB TOTAL     ACCESS:   16248066  HIT:   16248066  MISS:          0  HIT %:        100  MISS %:          0   MPKI: 0
ITLB LOAD TRANSLATION ACCESS:   16248066  HIT:   16248066  MISS:          0  HIT %:        100  MISS %:          0   MPKI: 0
ITLB PREFETCH  REQUESTED:          0  ISSUED:          0  USEFUL:          0  USELESS:          0
ITLB USEFUL LOAD PREFETCHES:          0 PREFETCH ISSUED TO LOWER LEVEL:          0  ACCURACY: -nan
ITLB TIMELY PREFETCHES:          0 LATE PREFETCHES: 0 DROPPED PREFETCHES: 0
ITLB PREFETCHES SAME FILL-ORIGIN LEVEL: 0 DIFFERENT FILL-ORIGIN LEVEL: 0
ITLB AVERAGE MISS LATENCY: -nan cycles
ITLB RQ	ACCESS:   20969834	FORWARD:          0	MERGED:    4721768	TO_CACHE:   16248066

DTLB TOTAL     ACCESS:   20019052  HIT:   19906324  MISS:     112728  HIT %:    99.4369  MISS %:   0.563104   MPKI: 1.12728
DTLB LOAD TRANSLATION ACCESS:   20019052  HIT:   19906324  MISS:     112728  HIT %:    99.4369  MISS %:   0.563104   MPKI: 1.12728
DTLB PREFETCH  REQUESTED:          0  ISSUED:          0  USEFUL:          0  USELESS:          0
DTLB USEFUL LOAD PREFETCHES:          0 PREFETCH ISSUED TO LOWER LEVEL:          0  ACCURACY: -nan
DTLB TIMELY PREFETCHES:          0 LATE PREFETCHES: 0 DROPPED PREFETCHES: 0
DTLB PREFETCHES SAME FILL-ORIGIN LEVEL: 0 DIFFERENT FILL-ORIGIN LEVEL: 0
DTLB AVERAGE MISS LATENCY: 69.1734 cycles
DTLB RQ	ACCESS:   21576526	FORWARD:          0	MERGED:    1552683	TO_CACHE:   20023843

STLB TOTAL     ACCESS:    3119701  HIT:    3020711  MISS:      98990  HIT %:    96.8269  MISS %:    3.17306   MPKI: 0.9899
STLB LOAD TRANSLATION ACCESS:     112728  HIT:      13740  MISS:      98988  HIT %:    12.1886  MISS %:    87.8114   MPKI: 0.98988
STLB TRANSLATION FROM L1D PREFETCHER ACCESS:    3006973  HIT:    3006971  MISS:          2  HIT %:    99.9999  MISS %: 6.65121e-05   MPKI: 2e-05
STLB PREFETCH  REQUESTED:          0  ISSUED:          0  USEFUL:          2  USELESS:          0
STLB USEFUL LOAD PREFETCHES:          2 PREFETCH ISSUED TO LOWER LEVEL:          0  ACCURACY: inf
STLB TIMELY PREFETCHES:          2 LATE PREFETCHES: 0 DROPPED PREFETCHES: 0
STLB PREFETCHES SAME FILL-ORIGIN LEVEL: 0 DIFFERENT FILL-ORIGIN LEVEL: 0
STLB AVERAGE MISS LATENCY: 68.5243 cycles
STLB RQ	ACCESS:    3393019	FORWARD:          0	MERGED:     273318	TO_CACHE:    3119701

STLB Hit, L1D data hit: 0
STLB Hit, L2C data hit: 0
STLB Hit, LLC data hit: 0
STLB Hit, LLC data miss: 0
STLB STLB hints to L2: 0
L1D TOTAL     ACCESS:   24275826  HIT:   20092229  MISS:    4183597  HIT %:    82.7664  MISS %:    17.2336   MPKI: 41.836
L1D LOAD      ACCESS:   18404876  HIT:   16765068  MISS:    1639808  HIT %:    91.0904  MISS %:    8.90964   MPKI: 16.3981
L1D RFO       ACCESS:    2647281  HIT:    2566214  MISS:      81067  HIT %:    96.9377  MISS %:    3.06227   MPKI: 0.81067
L1D PREFETCH  ACCESS:    3223669  HIT:     760947  MISS:    2462722  HIT %:     23.605  MISS %:     76.395   MPKI: 24.6272
AGUS PREFETCH L1 MISS: 0
L1D PREFETCH  REQUESTED:    6569988  ISSUED:    6560582  USEFUL:    1356144  USELESS:    1106782
L1D USEFUL LOAD PREFETCHES:    1356144 PREFETCH ISSUED TO LOWER LEVEL:    2507385  ACCURACY: 54.086
L1D TIMELY PREFETCHES:    1356144 LATE PREFETCHES: 44661 DROPPED PREFETCHES: 0
L1D PREFETCHES SAME FILL-ORIGIN LEVEL: 2507385 DIFFERENT FILL-ORIGIN LEVEL: 0
L1D AVERAGE MISS LATENCY: 100.693 cycles
L1D RQ	ACCESS:   25412836	FORWARD:          0	MERGED:    6928734	TO_CACHE:   18475880
L1D WQ	ACCESS:    3129175	FORWARD:       8222	MERGED:      28529	TO_CACHE:    3100646
L1D PQ	ACCESS:    3280291	FORWARD:          0	MERGED:          0	TO_CACHE:    3280291

L1D UNIQUE REGIONS ACCESSED: 0
L1D REGIONS CONFLICTS: 0
L1D Cross Page Prefetch Requests: 0
L1D Same Page Prefetch Requests: 6848597
L1D ROI Sum of L1D PQ occupancy: 42752100
L1D PREFETCHES PUSHED FROM L2C: 0
L1I TOTAL     ACCESS:   20969832  HIT:   20969817  MISS:         15  HIT %:    99.9999  MISS %: 7.15313e-05   MPKI: 0.00015
L1I LOAD      ACCESS:   20969832  HIT:   20969817  MISS:         15  HIT %:    99.9999  MISS %: 7.15313e-05   MPKI: 0.00015
L1I PREFETCH  REQUESTED:          0  ISSUED:          0  USEFUL:          0  USELESS:          0
L1I USEFUL LOAD PREFETCHES:          0 PREFETCH ISSUED TO LOWER LEVEL:          0  ACCURACY: -nan
L1I TIMELY PREFETCHES:          0 LATE PREFETCHES: 0 DROPPED PREFETCHES: 0
L1I PREFETCHES SAME FILL-ORIGIN LEVEL: 0 DIFFERENT FILL-ORIGIN LEVEL: 0
L1I AVERAGE MISS LATENCY: 195.667 cycles
L1I RQ	ACCESS:   32038607	FORWARD:          0	MERGED:   11068773	TO_CACHE:   20969834

BTB TOTAL     ACCESS:   20135180  HIT:   20134924  MISS:        256  HIT %:    99.9987  MISS %: 0.00127141   MPKI: 0.00256
BTB BRANCH_DIRECT_JUMP	ACCESS:       3705  HIT:       3661  MISS:         44
BTB BRANCH_INDIRECT	ACCESS:          1  HIT:          0  MISS:          1
BTB BRANCH_CONDITIONAL	ACCESS:   20131240  HIT:   20131139  MISS:        101
BTB BRANCH_DIRECT_CALL	ACCESS:        114  HIT:         72  MISS:         42
BTB BRANCH_INDIRECT_CALL	ACCESS:          3  HIT:          0  MISS:          3
BTB BRANCH_RETURN	ACCESS:        117  HIT:         52  MISS:         65
BTB BRANCH_OTHER ACCESS:          0  HIT:          0  MISS:          0

L2C TOTAL     ACCESS:    4585539  HIT:    2328709  MISS:    2256830  HIT %:    50.7838  MISS %:    49.2162   MPKI: 22.5683
L2C LOAD      ACCESS:    1595162  HIT:    1083415  MISS:     511747  HIT %:    67.9188  MISS %:    32.0812   MPKI: 5.11747
L2C DATA LOAD MPKI: 5.11732
L2C INSTRUCTION LOAD MPKI: 0.00015
L2C RFO       ACCESS:      81067  HIT:       6917  MISS:      74150  HIT %:    8.53245  MISS %:    91.4676   MPKI: 0.7415
L2C PREFETCH  ACCESS:    2507383  HIT:     855673  MISS:    1651710  HIT %:    34.1261  MISS %:    65.8739   MPKI: 16.5171
AGUS PREFETCH L1 MISS: 0
L2C DATA PREFETCH MPKI: 16.5171
L2C INSTRUCTION PREFETCH MPKI: 0
L2C WRITEBACK ACCESS:     302532  HIT:     302521  MISS:         11  HIT %:    99.9964  MISS %: 0.00363598   MPKI: 0.00011
L2C LOAD TRANSLATION ACCESS:      99392  HIT:      80183  MISS:      19209  HIT %:    80.6735  MISS %:    19.3265   MPKI: 0.19209
L2C TRANSLATION FROM L1D PREFETCHER ACCESS:          3  HIT:          0  MISS:          3  HIT %:          0  MISS %:        100   MPKI: 3e-05
L2C PREFETCH  REQUESTED:          0  ISSUED:          0  USEFUL:      32161  USELESS:    1615702
L2C USEFUL LOAD PREFETCHES:      32161 PREFETCH ISSUED TO LOWER LEVEL:    1651712  ACCURACY: 1.94713
L2C TIMELY PREFETCHES:      32161 LATE PREFETCHES: 0 DROPPED PREFETCHES: 0
L2C PREFETCHES SAME FILL-ORIGIN LEVEL: 0 DIFFERENT FILL-ORIGIN LEVEL: 0
L2C AVERAGE MISS LATENCY: 160.449 cycles
L2C RQ	ACCESS:    1775624	FORWARD:          0	MERGED:          0	TO_CACHE:    1775624
L2C WQ	ACCESS:     302532	FORWARD:          0	MERGED:          0	TO_CACHE:     302532
L2C PQ	ACCESS:    2507385	FORWARD:          0	MERGED:          0	TO_CACHE:    2507385

L2C Instructions Evicting Data 14
L2C Translations Evicting Data 18882
L2C Data Evicting Data 2218709
L2C Instructions Evicting Instructions 0
L2C Translations Evicting Instructions 0
L2C Data Evicting Instructions 15
L2C Instructions Evicting Translations 1
L2C Translations Evicting Translations 330
L2C Data Evicting Translations 18868
L2C Dense regions hint from L2: 0
PSCL5 TOTAL     ACCESS:      98990  HIT:      98990  MISS:          0  HIT %:        100  MISS %:          0   MPKI: 0
PSCL5 LOAD TRANSLATION ACCESS:      98988  HIT:      98988  MISS:          0  HIT %:        100  MISS %:          0   MPKI: 0
PSCL5 TRANSLATION FROM L1D PREFETCHER ACCESS:          2  HIT:          2  MISS:          0  HIT %:        100  MISS %:          0   MPKI: 0
PSCL5 PREFETCH  REQUESTED:          0  ISSUED:          0  USEFUL:          0  USELESS:          0
PSCL5 USEFUL LOAD PREFETCHES:          0 PREFETCH ISSUED TO LOWER LEVEL:          0  ACCURACY: -nan
PSCL5 TIMELY PREFETCHES:          0 LATE PREFETCHES: 0 DROPPED PREFETCHES: 0
PSCL5 PREFETCHES SAME FILL-ORIGIN LEVEL: 0 DIFFERENT FILL-ORIGIN LEVEL: 0

PSCL4 TOTAL     ACCESS:      98990  HIT:      98990  MISS:          0  HIT %:        100  MISS %:          0   MPKI: 0
PSCL4 LOAD TRANSLATION ACCESS:      98988  HIT:      98988  MISS:          0  HIT %:        100  MISS %:          0   MPKI: 0
PSCL4 TRANSLATION FROM L1D PREFETCHER ACCESS:          2  HIT:          2  MISS:          0  HIT %:        100  MISS %:          0   MPKI: 0
PSCL4 PREFETCH  REQUESTED:          0  ISSUED:          0  USEFUL:          0  USELESS:          0
PSCL4 USEFUL LOAD PREFETCHES:          0 PREFETCH ISSUED TO LOWER LEVEL:          0  ACCURACY: -nan
PSCL4 TIMELY PREFETCHES:          0 LATE PREFETCHES: 0 DROPPED PREFETCHES: 0
PSCL4 PREFETCHES SAME FILL-ORIGIN LEVEL: 0 DIFFERENT FILL-ORIGIN LEVEL: 0

PSCL3 TOTAL     ACCESS:      98990  HIT:      98990  MISS:          0  HIT %:        100  MISS %:          0   MPKI: 0
PSCL3 LOAD TRANSLATION ACCESS:      98988  HIT:      98988  MISS:          0  HIT %:        100  MISS %:          0   MPKI: 0
PSCL3 TRANSLATION FROM L1D PREFETCHER ACCESS:          2  HIT:          2  MISS:          0  HIT %:        100  MISS %:          0   MPKI: 0
PSCL3 PREFETCH  REQUESTED:          0  ISSUED:          0  USEFUL:          0  USELESS:          0
PSCL3 USEFUL LOAD PREFETCHES:          0 PREFETCH ISSUED TO LOWER LEVEL:          0  ACCURACY: -nan
PSCL3 TIMELY PREFETCHES:          0 LATE PREFETCHES: 0 DROPPED PREFETCHES: 0
PSCL3 PREFETCHES SAME FILL-ORIGIN LEVEL: 0 DIFFERENT FILL-ORIGIN LEVEL: 0

PSCL2 TOTAL     ACCESS:      98990  HIT:      98578  MISS:        412  HIT %:    99.5838  MISS %:   0.416204   MPKI: 0.00412
PSCL2 LOAD TRANSLATION ACCESS:      98989  HIT:      98577  MISS:        412  HIT %:    99.5838  MISS %:   0.416208   MPKI: 0.00412
PSCL2 TRANSLATION FROM L1D PREFETCHER ACCESS:          1  HIT:          1  MISS:          0  HIT %:        100  MISS %:          0   MPKI: 0
PSCL2 PREFETCH  REQUESTED:          0  ISSUED:          0  USEFUL:          0  USELESS:          0
PSCL2 USEFUL LOAD PREFETCHES:          0 PREFETCH ISSUED TO LOWER LEVEL:          0  ACCURACY: -nan
PSCL2 TIMELY PREFETCHES:          0 LATE PREFETCHES: 0 DROPPED PREFETCHES: 0
PSCL2 PREFETCHES SAME FILL-ORIGIN LEVEL: 0 DIFFERENT FILL-ORIGIN LEVEL: 0

LLC TOTAL     ACCESS:    2558458  HIT:     362400  MISS:    2196058  HIT %:    14.1648  MISS %:    85.8352   MPKI: 21.9606
LLC LOAD      ACCESS:     511747  HIT:      30687  MISS:     481060  HIT %:    5.99652  MISS %:    94.0035   MPKI: 4.8106
LLC RFO       ACCESS:      74150  HIT:       2197  MISS:      71953  HIT %:    2.96291  MISS %:    97.0371   MPKI: 0.71953
LLC PREFETCH  ACCESS:    1651710  HIT:      33434  MISS:    1618276  HIT %:    2.02421  MISS %:    97.9758   MPKI: 16.1828
AGUS PREFETCH L1 MISS: 0
LLC WRITEBACK ACCESS:     301639  HIT:     295682  MISS:       5957  HIT %:    98.0251  MISS %:    1.97488   MPKI: 0.05957
LLC LOAD TRANSLATION ACCESS:      19209  HIT:        398  MISS:      18811  HIT %:    2.07195  MISS %:    97.9281   MPKI: 0.18811
LLC TRANSLATION FROM L1D PREFETCHER ACCESS:          3  HIT:          2  MISS:          1  HIT %:    66.6667  MISS %:    33.3333   MPKI: 1e-05
LLC PREFETCH  REQUESTED:          0  ISSUED:          0  USEFUL:       6337  USELESS:    1603075
LLC USEFUL LOAD PREFETCHES:       6337 PREFETCH ISSUED TO LOWER LEVEL:    1618278  ACCURACY: 0.391589
LLC TIMELY PREFETCHES:       6337 LATE PREFETCHES: 0 DROPPED PREFETCHES: 0
LLC PREFETCHES SAME FILL-ORIGIN LEVEL: 0 DIFFERENT FILL-ORIGIN LEVEL: 0
LLC AVERAGE MISS LATENCY: 134.046 cycles
LLC RQ	ACCESS:     605109	FORWARD:          0	MERGED:          0	TO_CACHE:     605109
LLC WQ	ACCESS:     301639	FORWARD:          0	MERGED:          0	TO_CACHE:     301639
LLC PQ	ACCESS:    1651712	FORWARD:          0	MERGED:          0	TO_CACHE:    1651712

LLC Dense regions hint to LLC: 0

RAW hits: 48676
Loads Generated: 25461513
Loads sent to L1D: 25412836
Stores Generated: 3129175
Stores sent to L1D: 3129175
Major fault: 0 Minor fault: 27202
Allocated PAGES: 27202

stream: 
stream:times selected: 6934718
stream:pref_filled: 3252975
stream:pref_useful: 1006071
stream:pref_late: 43940
stream:misses: 667991
stream:misses_by_poll: 0

CS: 
CS:times selected: 1558982
CS:pref_filled: 1122706
CS:pref_useful: 1058031
CS:pref_late: 2051
CS:misses: 58664
CS:misses_by_poll: 3509

CPLX: 
CPLX:times selected: 5333126
CPLX:pref_filled: 74428
CPLX:pref_useful: 25640
CPLX:pref_late: 585
CPLX:misses: 1919124
CPLX:misses_by_poll: 38

NL_L1: 
NL:times selected: 39449
NL:pref_filled: 21303
NL:pref_useful: 7592
NL:pref_late: 173
NL:misses: 17701
NL:misses_by_poll: 0

total selections: 13866275
total_filled: 2462722
total_useful: 1356144
total_late: 48391
total_polluted: 3547
total_misses_after_warmup: 1710811
conflicts: 1257216

test: 3368601

DRAM Statistics
 CHANNEL 0
 RQ ROW_BUFFER_HIT:     902307  ROW_BUFFER_MISS:    1287790
 DBUS_CONGESTED:       2570
 WQ ROW_BUFFER_HIT:      91586  ROW_BUFFER_MISS:     207326  FULL:          0

 AVG_CONGESTED_CYCLE: 4
 All warmup complete: 2
Channel 0 Bank busy for read cycles: 0
Channel 0 Bank busy for write cycles: 0
Channel 0
Rank 0
0banks busy for read cycles: 148787015
0banks busy for write cycles: 167995
1banks busy for read cycles: 103450143
1banks busy for write cycles: 26679600
2banks busy for read cycles: 44928917
2banks busy for write cycles: 6806713
3banks busy for read cycles: 10498423
3banks busy for write cycles: 1737122
4banks busy for read cycles: 2335431
4banks busy for write cycles: 651905
5banks busy for read cycles: 392509
5banks busy for write cycles: 334360
6banks busy for read cycles: 154604
6banks busy for write cycles: 267853
7banks busy for read cycles: 101177
7banks busy for write cycles: 268100
8banks busy for read cycles: 73923
8banks busy for write cycles: 1347804

CPU 0 Branch Prediction Accuracy: 82.0873% MPKI: 38.1202 Average ROB Occupancy at Mispredict: 7.06416
Branch types
NOT_BRANCH: 78718951 78.719%
BRANCH_DIRECT_JUMP: 3705 0.003705%
BRANCH_INDIRECT: 1 1e-06%
BRANCH_CONDITIONAL: 21277098 21.2771%
BRANCH_DIRECT_CALL: 114 0.000114%
BRANCH_INDIRECT_CALL: 3 3e-06%
BRANCH_RETURN: 117 0.000117%
BRANCH_OTHER: 0 0%

DRAM PAGES: 1048576
Allocated PAGES: 27202
