
*** ChampSim Multicore Out-of-Order Simulator ***

Warmup Instructions: 50000000
Simulation Instructions: 100000000
Number of CPUs: 1
LLC sets: 2048
LLC ways: 16
Off-chip DRAM Size: 4096 MB Channels: 1 Width: 64-bit Data Rate: 6400 MT/s
CPU 0 runs ./traces/GAP/cc-14.trace.gz
.gz
CPU 0 Bimodal branch predictor
BTB has LRU replacement policy
ITLB has LRU replacement policy
DTLB has LRU replacement policy
STLB has LRU replacement policy
L1I has LRU replacement policy
L1D has LRU replacement policy
Ideal ISB Prefetching
L2C has LRU replacement policy
LLC has LRU replacement policy
Heartbeat CPU 0 instructions: 10000001 cycles: 3087079 heartbeat IPC: 3.23931 cumulative IPC: 3.23931 (Simulation time: 0 hr 0 min 56 sec) 
Heartbeat CPU 0 instructions: 20000000 cycles: 6164666 heartbeat IPC: 3.2493 cumulative IPC: 3.2443 (Simulation time: 0 hr 2 min 19 sec) 
Heartbeat CPU 0 instructions: 30000003 cycles: 9250883 heartbeat IPC: 3.24021 cumulative IPC: 3.24293 (Simulation time: 0 hr 3 min 45 sec) 
Heartbeat CPU 0 instructions: 40000000 cycles: 12340918 heartbeat IPC: 3.23621 cumulative IPC: 3.24125 (Simulation time: 0 hr 5 min 14 sec) 
Heartbeat CPU 0 instructions: 50000000 cycles: 15436140 heartbeat IPC: 3.23079 cumulative IPC: 3.23915 (Simulation time: 0 hr 6 min 46 sec) 

Warmup complete CPU 0 instructions: 50000004 cycles: 15436141 (Simulation time: 0 hr 6 min 46 sec) 

Heartbeat CPU 0 instructions: 60000000 cycles: 68008607 heartbeat IPC: 0.190214 cumulative IPC: 0.190214 (Simulation time: 0 hr 8 min 41 sec) 
Heartbeat CPU 0 instructions: 70000001 cycles: 120129831 heartbeat IPC: 0.19186 cumulative IPC: 0.191033 (Simulation time: 0 hr 10 min 37 sec) 
Heartbeat CPU 0 instructions: 80000000 cycles: 173349908 heartbeat IPC: 0.187899 cumulative IPC: 0.189977 (Simulation time: 0 hr 12 min 34 sec) 
Heartbeat CPU 0 instructions: 90000000 cycles: 224694228 heartbeat IPC: 0.194764 cumulative IPC: 0.191151 (Simulation time: 0 hr 14 min 33 sec) 
Heartbeat CPU 0 instructions: 100000000 cycles: 276204293 heartbeat IPC: 0.194137 cumulative IPC: 0.191741 (Simulation time: 0 hr 16 min 30 sec) 
Heartbeat CPU 0 instructions: 110000000 cycles: 328758443 heartbeat IPC: 0.19028 cumulative IPC: 0.191496 (Simulation time: 0 hr 18 min 27 sec) 
Heartbeat CPU 0 instructions: 120000000 cycles: 381746841 heartbeat IPC: 0.188721 cumulative IPC: 0.191095 (Simulation time: 0 hr 20 min 28 sec) 
Heartbeat CPU 0 instructions: 130000000 cycles: 435676094 heartbeat IPC: 0.185428 cumulative IPC: 0.190367 (Simulation time: 0 hr 22 min 26 sec) 
Heartbeat CPU 0 instructions: 140000000 cycles: 487969888 heartbeat IPC: 0.191227 cumulative IPC: 0.190463 (Simulation time: 0 hr 24 min 25 sec) 
Heartbeat CPU 0 instructions: 150000001 cycles: 539244907 heartbeat IPC: 0.195027 cumulative IPC: 0.190909 (Simulation time: 0 hr 26 min 24 sec) 
Finished CPU 0 instructions: 100000001 cycles: 523808767 cumulative IPC: 0.190909 (Simulation time: 0 hr 26 min 24 sec) 

ChampSim completed all CPUs

Region of Interest Statistics

CPU 0 cumulative IPC: 0.190909 instructions: 100000001 cycles: 523808767
ITLB TOTAL     ACCESS:   16057996  HIT:   16057996  MISS:          0  HIT %:        100  MISS %:          0   MPKI: 0
ITLB LOAD TRANSLATION ACCESS:   16057996  HIT:   16057996  MISS:          0  HIT %:        100  MISS %:          0   MPKI: 0
ITLB PREFETCH  REQUESTED:          0  ISSUED:          0  USEFUL:          0  USELESS:          0
ITLB USEFUL LOAD PREFETCHES:          0 PREFETCH ISSUED TO LOWER LEVEL:          0  ACCURACY: -nan
ITLB TIMELY PREFETCHES:          0 LATE PREFETCHES: 0 DROPPED PREFETCHES: 0
ITLB PREFETCHES SAME FILL-ORIGIN LEVEL: 0 DIFFERENT FILL-ORIGIN LEVEL: 0
ITLB AVERAGE MISS LATENCY: -nan cycles
ITLB RQ	ACCESS:   16269634	FORWARD:          0	MERGED:     211639	TO_CACHE:   16057995

DTLB TOTAL     ACCESS:   19678565  HIT:   14881440  MISS:    4797125  HIT %:    75.6226  MISS %:    24.3774   MPKI: 47.9712
DTLB LOAD TRANSLATION ACCESS:   19678565  HIT:   14881440  MISS:    4797125  HIT %:    75.6226  MISS %:    24.3774   MPKI: 47.9712
DTLB PREFETCH  REQUESTED:          0  ISSUED:          0  USEFUL:          0  USELESS:          0
DTLB USEFUL LOAD PREFETCHES:          0 PREFETCH ISSUED TO LOWER LEVEL:          0  ACCURACY: -nan
DTLB TIMELY PREFETCHES:          0 LATE PREFETCHES: 0 DROPPED PREFETCHES: 0
DTLB PREFETCHES SAME FILL-ORIGIN LEVEL: 0 DIFFERENT FILL-ORIGIN LEVEL: 0
DTLB AVERAGE MISS LATENCY: 9.71885 cycles
DTLB RQ	ACCESS:   20893199	FORWARD:          0	MERGED:    1185152	TO_CACHE:   19708047

STLB TOTAL     ACCESS:    4797125  HIT:    4789842  MISS:       7283  HIT %:    99.8482  MISS %:    0.15182   MPKI: 0.07283
STLB LOAD TRANSLATION ACCESS:    4797125  HIT:    4789842  MISS:       7283  HIT %:    99.8482  MISS %:    0.15182   MPKI: 0.07283
STLB PREFETCH  REQUESTED:          0  ISSUED:          0  USEFUL:          0  USELESS:          0
STLB USEFUL LOAD PREFETCHES:          0 PREFETCH ISSUED TO LOWER LEVEL:          0  ACCURACY: -nan
STLB TIMELY PREFETCHES:          0 LATE PREFETCHES: 0 DROPPED PREFETCHES: 0
STLB PREFETCHES SAME FILL-ORIGIN LEVEL: 0 DIFFERENT FILL-ORIGIN LEVEL: 0
STLB AVERAGE MISS LATENCY: 138.631 cycles
STLB RQ	ACCESS:    4797125	FORWARD:          0	MERGED:          0	TO_CACHE:    4797125

STLB Hit, L1D data hit: 0
STLB Hit, L2C data hit: 0
STLB Hit, LLC data hit: 0
STLB Hit, LLC data miss: 0
STLB STLB hints to L2: 0
L1D TOTAL     ACCESS:   20395431  HIT:   12997214  MISS:    7398217  HIT %:    63.7261  MISS %:    36.2739   MPKI: 73.9822
L1D LOAD      ACCESS:   20218241  HIT:   12820024  MISS:    7398217  HIT %:    63.4082  MISS %:    36.5918   MPKI: 73.9822
L1D RFO       ACCESS:     177190  HIT:     177190  MISS:          0  HIT %:        100  MISS %:          0   MPKI: 0
L1D PREFETCH  REQUESTED:          0  ISSUED:          0  USEFUL:          0  USELESS:          0
L1D USEFUL LOAD PREFETCHES:          0 PREFETCH ISSUED TO LOWER LEVEL:          0  ACCURACY: -nan
L1D TIMELY PREFETCHES:          0 LATE PREFETCHES: 0 DROPPED PREFETCHES: 0
L1D PREFETCHES SAME FILL-ORIGIN LEVEL: 0 DIFFERENT FILL-ORIGIN LEVEL: 0
L1D AVERAGE MISS LATENCY: 87.1216 cycles
L1D RQ	ACCESS:   27400820	FORWARD:          0	MERGED:    6680383	TO_CACHE:   20716009
L1D WQ	ACCESS:     177190	FORWARD:       4428	MERGED:          0	TO_CACHE:     177190

L1D UNIQUE REGIONS ACCESSED: 0
L1D REGIONS CONFLICTS: 0
L1D Cross Page Prefetch Requests: 0
L1D Same Page Prefetch Requests: 0
L1D ROI Sum of L1D PQ occupancy: 0
L1D PREFETCHES PUSHED FROM L2C: 0
L1I TOTAL     ACCESS:   16269636  HIT:   16269636  MISS:          0  HIT %:        100  MISS %:          0   MPKI: 0
L1I LOAD      ACCESS:   16269636  HIT:   16269636  MISS:          0  HIT %:        100  MISS %:          0   MPKI: 0
L1I PREFETCH  REQUESTED:          0  ISSUED:          0  USEFUL:          0  USELESS:          0
L1I USEFUL LOAD PREFETCHES:          0 PREFETCH ISSUED TO LOWER LEVEL:          0  ACCURACY: -nan
L1I TIMELY PREFETCHES:          0 LATE PREFETCHES: 0 DROPPED PREFETCHES: 0
L1I PREFETCHES SAME FILL-ORIGIN LEVEL: 0 DIFFERENT FILL-ORIGIN LEVEL: 0
L1I AVERAGE MISS LATENCY: -nan cycles
L1I RQ	ACCESS:   26529517	FORWARD:          0	MERGED:   10259883	TO_CACHE:   16269634

BTB TOTAL     ACCESS:   20113455  HIT:   20113450  MISS:          5  HIT %:        100  MISS %: 2.4859e-05   MPKI: 5e-05
BTB BRANCH_DIRECT_JUMP	ACCESS:          0  HIT:          0  MISS:          0
BTB BRANCH_INDIRECT	ACCESS:          0  HIT:          0  MISS:          0
BTB BRANCH_CONDITIONAL	ACCESS:   20113455  HIT:   20113450  MISS:          5
BTB BRANCH_DIRECT_CALL	ACCESS:          0  HIT:          0  MISS:          0
BTB BRANCH_INDIRECT_CALL	ACCESS:          0  HIT:          0  MISS:          0
BTB BRANCH_RETURN	ACCESS:          0  HIT:          0  MISS:          0
BTB BRANCH_OTHER ACCESS:          0  HIT:          0  MISS:          0

L2C TOTAL     ACCESS:    8179527  HIT:    3005240  MISS:    5174287  HIT %:     36.741  MISS %:     63.259   MPKI: 51.7429
L2C LOAD      ACCESS:    7398216  HIT:    2225273  MISS:    5172943  HIT %:    30.0785  MISS %:    69.9215   MPKI: 51.7294
L2C DATA LOAD MPKI: 51.7294
L2C INSTRUCTION LOAD MPKI: 0
L2C PREFETCH  ACCESS:     632673  HIT:     632673  MISS:          0  HIT %:        100  MISS %:          0   MPKI: 0
AGUS PREFETCH L1 MISS: 0
L2C DATA PREFETCH MPKI: 0
L2C INSTRUCTION PREFETCH MPKI: 0
L2C WRITEBACK ACCESS:     141355  HIT:     141283  MISS:         72  HIT %:    99.9491  MISS %:  0.0509356   MPKI: 0.00072
L2C LOAD TRANSLATION ACCESS:       7283  HIT:       6011  MISS:       1272  HIT %:    82.5347  MISS %:    17.4653   MPKI: 0.01272
L2C PREFETCH  REQUESTED:    4004437  ISSUED:    4004437  USEFUL:          0  USELESS:          0
L2C USEFUL LOAD PREFETCHES:          0 PREFETCH ISSUED TO LOWER LEVEL:    3352917  ACCURACY: 0
L2C TIMELY PREFETCHES:          0 LATE PREFETCHES: 0 DROPPED PREFETCHES: 0
L2C PREFETCHES SAME FILL-ORIGIN LEVEL: 0 DIFFERENT FILL-ORIGIN LEVEL: 3352917
L2C AVERAGE MISS LATENCY: 102.836 cycles
L2C RQ	ACCESS:    7405500	FORWARD:          0	MERGED:          0	TO_CACHE:    7405500
L2C WQ	ACCESS:     141355	FORWARD:          0	MERGED:          0	TO_CACHE:     141355
L2C PQ	ACCESS:    4004437	FORWARD:          0	MERGED:       6380	TO_CACHE:    3998057

L2C Instructions Evicting Data 0
L2C Translations Evicting Data 1272
L2C Data Evicting Data 5171670
L2C Instructions Evicting Instructions 0
L2C Translations Evicting Instructions 0
L2C Data Evicting Instructions 0
L2C Instructions Evicting Translations 0
L2C Translations Evicting Translations 0
L2C Data Evicting Translations 1273
L2C Dense regions hint from L2: 0
PSCL5 TOTAL     ACCESS:       7283  HIT:       7283  MISS:          0  HIT %:        100  MISS %:          0   MPKI: 0
PSCL5 LOAD TRANSLATION ACCESS:       7283  HIT:       7283  MISS:          0  HIT %:        100  MISS %:          0   MPKI: 0
PSCL5 PREFETCH  REQUESTED:          0  ISSUED:          0  USEFUL:          0  USELESS:          0
PSCL5 USEFUL LOAD PREFETCHES:          0 PREFETCH ISSUED TO LOWER LEVEL:          0  ACCURACY: -nan
PSCL5 TIMELY PREFETCHES:          0 LATE PREFETCHES: 0 DROPPED PREFETCHES: 0
PSCL5 PREFETCHES SAME FILL-ORIGIN LEVEL: 0 DIFFERENT FILL-ORIGIN LEVEL: 0

PSCL4 TOTAL     ACCESS:       7283  HIT:       7283  MISS:          0  HIT %:        100  MISS %:          0   MPKI: 0
PSCL4 LOAD TRANSLATION ACCESS:       7283  HIT:       7283  MISS:          0  HIT %:        100  MISS %:          0   MPKI: 0
PSCL4 PREFETCH  REQUESTED:          0  ISSUED:          0  USEFUL:          0  USELESS:          0
PSCL4 USEFUL LOAD PREFETCHES:          0 PREFETCH ISSUED TO LOWER LEVEL:          0  ACCURACY: -nan
PSCL4 TIMELY PREFETCHES:          0 LATE PREFETCHES: 0 DROPPED PREFETCHES: 0
PSCL4 PREFETCHES SAME FILL-ORIGIN LEVEL: 0 DIFFERENT FILL-ORIGIN LEVEL: 0

PSCL3 TOTAL     ACCESS:       7283  HIT:       7283  MISS:          0  HIT %:        100  MISS %:          0   MPKI: 0
PSCL3 LOAD TRANSLATION ACCESS:       7283  HIT:       7283  MISS:          0  HIT %:        100  MISS %:          0   MPKI: 0
PSCL3 PREFETCH  REQUESTED:          0  ISSUED:          0  USEFUL:          0  USELESS:          0
PSCL3 USEFUL LOAD PREFETCHES:          0 PREFETCH ISSUED TO LOWER LEVEL:          0  ACCURACY: -nan
PSCL3 TIMELY PREFETCHES:          0 LATE PREFETCHES: 0 DROPPED PREFETCHES: 0
PSCL3 PREFETCHES SAME FILL-ORIGIN LEVEL: 0 DIFFERENT FILL-ORIGIN LEVEL: 0

PSCL2 TOTAL     ACCESS:       7283  HIT:       7268  MISS:         15  HIT %:     99.794  MISS %:   0.205959   MPKI: 0.00015
PSCL2 LOAD TRANSLATION ACCESS:       7283  HIT:       7268  MISS:         15  HIT %:     99.794  MISS %:   0.205959   MPKI: 0.00015
PSCL2 PREFETCH  REQUESTED:          0  ISSUED:          0  USEFUL:          0  USELESS:          0
PSCL2 USEFUL LOAD PREFETCHES:          0 PREFETCH ISSUED TO LOWER LEVEL:          0  ACCURACY: -nan
PSCL2 TIMELY PREFETCHES:          0 LATE PREFETCHES: 0 DROPPED PREFETCHES: 0
PSCL2 PREFETCHES SAME FILL-ORIGIN LEVEL: 0 DIFFERENT FILL-ORIGIN LEVEL: 0

LLC TOTAL     ACCESS:    8664964  HIT:    5386963  MISS:    3278001  HIT %:    62.1695  MISS %:    37.8305   MPKI: 32.78
LLC LOAD      ACCESS:    5172943  HIT:    2833937  MISS:    2339006  HIT %:    54.7838  MISS %:    45.2162   MPKI: 23.3901
LLC PREFETCH  ACCESS:    3349540  HIT:    2412670  MISS:     936870  HIT %:    72.0299  MISS %:    27.9701   MPKI: 9.3687
AGUS PREFETCH L1 MISS: 0
LLC WRITEBACK ACCESS:     141209  HIT:     140022  MISS:       1187  HIT %:    99.1594  MISS %:   0.840598   MPKI: 0.01187
LLC LOAD TRANSLATION ACCESS:       1272  HIT:        334  MISS:        938  HIT %:    26.2579  MISS %:    73.7421   MPKI: 0.00938
LLC PREFETCH  REQUESTED:          0  ISSUED:          0  USEFUL:     365279  USELESS:     571647
LLC USEFUL LOAD PREFETCHES:     365279 PREFETCH ISSUED TO LOWER LEVEL:     938531  ACCURACY: 38.9203
LLC TIMELY PREFETCHES:     365279 LATE PREFETCHES: 1659 DROPPED PREFETCHES: 0
LLC PREFETCHES SAME FILL-ORIGIN LEVEL: 938531 DIFFERENT FILL-ORIGIN LEVEL: 0
LLC AVERAGE MISS LATENCY: 167.546 cycles
LLC RQ	ACCESS:    5174216	FORWARD:          0	MERGED:          0	TO_CACHE:    5174216
LLC WQ	ACCESS:     141209	FORWARD:          0	MERGED:          0	TO_CACHE:     141209
LLC PQ	ACCESS:    3352917	FORWARD:          0	MERGED:       1150	TO_CACHE:    3351767

LLC Dense regions hint to LLC: 0

RAW hits: 26910
Loads Generated: 27427730
Loads sent to L1D: 27400820
Stores Generated: 177190
Stores sent to L1D: 177190
Major fault: 0 Minor fault: 11793
Allocated PAGES: 11793
Prefetcher final stats
Training Unit Size: 63
Addr table size: 743034 743034


Triggers: 7574604
No Prediction: 1372952 18.1257
Stream end: 4068117
No translation: 4137871559 54628.2
Predictions: 5878419 77.6069


Stream divergence: 1735914 22.9176
Stream divergence -- new stream: 0

DRAM Statistics
 CHANNEL 0
 RQ ROW_BUFFER_HIT:     604935  ROW_BUFFER_MISS:    2671863
 DBUS_CONGESTED:        498
 WQ ROW_BUFFER_HIT:      56634  ROW_BUFFER_MISS:      83268  FULL:          0

 AVG_CONGESTED_CYCLE: 4
 All warmup complete: 2
Channel 0 Bank busy for read cycles: 0
Channel 0 Bank busy for write cycles: 0
Channel 0
Rank 0
0banks busy for read cycles: 238044410
0banks busy for write cycles: 115824
1banks busy for read cycles: 154454180
1banks busy for write cycles: 23241867
2banks busy for read cycles: 59939433
2banks busy for write cycles: 2940138
3banks busy for read cycles: 28058091
3banks busy for write cycles: 447947
4banks busy for read cycles: 11298708
4banks busy for write cycles: 78616
5banks busy for read cycles: 3938683
5banks busy for write cycles: 10906
6banks busy for read cycles: 1037325
6banks busy for write cycles: 3254
7banks busy for read cycles: 181199
7banks busy for write cycles: 330
8banks busy for read cycles: 17714
8banks busy for write cycles: 143

CPU 0 Branch Prediction Accuracy: 90.5619% MPKI: 19.0678 Average ROB Occupancy at Mispredict: 25.9259
Branch types
NOT_BRANCH: 79796882 79.7969%
BRANCH_DIRECT_JUMP: 0 0%
BRANCH_INDIRECT: 0 0%
BRANCH_CONDITIONAL: 20202993 20.203%
BRANCH_DIRECT_CALL: 0 0%
BRANCH_INDIRECT_CALL: 0 0%
BRANCH_RETURN: 0 0%
BRANCH_OTHER: 0 0%

DRAM PAGES: 1048576
Allocated PAGES: 11793
