
*** ChampSim Multicore Out-of-Order Simulator ***

Warmup Instructions: 50000000
Simulation Instructions: 100000000
Number of CPUs: 1
LLC sets: 2048
LLC ways: 16
Off-chip DRAM Size: 4096 MB Channels: 1 Width: 64-bit Data Rate: 6400 MT/s
CPU 0 runs ./traces/GAP/cc-14.trace.gz
.gz
CPU 0 Bimodal branch predictor
BTB has LRU replacement policy
ITLB has LRU replacement policy
DTLB has LRU replacement policy
STLB has LRU replacement policy
L1I has LRU replacement policy
L1D has LRU replacement policy
L2C has LRU replacement policy
LLC has LRU replacement policy
Heartbeat CPU 0 instructions: 10000002 cycles: 3071553 heartbeat IPC: 3.25568 cumulative IPC: 3.25568 (Simulation time: 0 hr 2 min 33 sec) 
Heartbeat CPU 0 instructions: 20000000 cycles: 6132747 heartbeat IPC: 3.2667 cumulative IPC: 3.26118 (Simulation time: 0 hr 5 min 39 sec) 
Heartbeat CPU 0 instructions: 30000000 cycles: 9203148 heartbeat IPC: 3.2569 cumulative IPC: 3.25975 (Simulation time: 0 hr 8 min 46 sec) 
Heartbeat CPU 0 instructions: 40000000 cycles: 12277724 heartbeat IPC: 3.25248 cumulative IPC: 3.25793 (Simulation time: 0 hr 11 min 55 sec) 
Heartbeat CPU 0 instructions: 50000003 cycles: 15357676 heartbeat IPC: 3.2468 cumulative IPC: 3.2557 (Simulation time: 0 hr 15 min 5 sec) 

Warmup complete CPU 0 instructions: 50000003 cycles: 15357676 (Simulation time: 0 hr 15 min 5 sec) 

Heartbeat CPU 0 instructions: 60000000 cycles: 62136895 heartbeat IPC: 0.21377 cumulative IPC: 0.21377 (Simulation time: 0 hr 15 min 56 sec) 
Heartbeat CPU 0 instructions: 70000001 cycles: 108426848 heartbeat IPC: 0.21603 cumulative IPC: 0.214894 (Simulation time: 0 hr 16 min 48 sec) 
Heartbeat CPU 0 instructions: 80000000 cycles: 155919904 heartbeat IPC: 0.210557 cumulative IPC: 0.213429 (Simulation time: 0 hr 17 min 39 sec) 
Heartbeat CPU 0 instructions: 90000000 cycles: 201477760 heartbeat IPC: 0.219501 cumulative IPC: 0.214915 (Simulation time: 0 hr 18 min 31 sec) 
Heartbeat CPU 0 instructions: 100000000 cycles: 247411380 heartbeat IPC: 0.217705 cumulative IPC: 0.215467 (Simulation time: 0 hr 19 min 23 sec) 
Heartbeat CPU 0 instructions: 110000000 cycles: 294092994 heartbeat IPC: 0.214217 cumulative IPC: 0.215258 (Simulation time: 0 hr 20 min 15 sec) 
Heartbeat CPU 0 instructions: 120000000 cycles: 341086332 heartbeat IPC: 0.212796 cumulative IPC: 0.214903 (Simulation time: 0 hr 21 min 6 sec) 
Heartbeat CPU 0 instructions: 130000002 cycles: 389177712 heartbeat IPC: 0.207938 cumulative IPC: 0.214007 (Simulation time: 0 hr 21 min 58 sec) 
Heartbeat CPU 0 instructions: 140000000 cycles: 435687771 heartbeat IPC: 0.215007 cumulative IPC: 0.214117 (Simulation time: 0 hr 22 min 50 sec) 
Heartbeat CPU 0 instructions: 150000001 cycles: 481076181 heartbeat IPC: 0.220321 cumulative IPC: 0.214722 (Simulation time: 0 hr 23 min 42 sec) 
Finished CPU 0 instructions: 100000002 cycles: 465718506 cumulative IPC: 0.214722 (Simulation time: 0 hr 23 min 42 sec) 

ChampSim completed all CPUs

Region of Interest Statistics

CPU 0 cumulative IPC: 0.214722 instructions: 100000002 cycles: 465718506
ITLB TOTAL     ACCESS:   15937006  HIT:   15937006  MISS:          0  HIT %:        100  MISS %:          0   MPKI: 0
ITLB LOAD TRANSLATION ACCESS:   15937006  HIT:   15937006  MISS:          0  HIT %:        100  MISS %:          0   MPKI: 0
ITLB PREFETCH  REQUESTED:          0  ISSUED:          0  USEFUL:          0  USELESS:          0
ITLB USEFUL LOAD PREFETCHES:          0 PREFETCH ISSUED TO LOWER LEVEL:          0  ACCURACY: -nan
ITLB TIMELY PREFETCHES:          0 LATE PREFETCHES: 0 DROPPED PREFETCHES: 0
ITLB PREFETCHES SAME FILL-ORIGIN LEVEL: 0 DIFFERENT FILL-ORIGIN LEVEL: 0
ITLB AVERAGE MISS LATENCY: -nan cycles
ITLB RQ	ACCESS:   16148644	FORWARD:          0	MERGED:     211639	TO_CACHE:   15937005

DTLB TOTAL     ACCESS:   19802422  HIT:   15004997  MISS:    4797425  HIT %:    75.7735  MISS %:    24.2265   MPKI: 47.9742
DTLB LOAD TRANSLATION ACCESS:   19802422  HIT:   15004997  MISS:    4797425  HIT %:    75.7735  MISS %:    24.2265   MPKI: 47.9742
DTLB PREFETCH  REQUESTED:          0  ISSUED:          0  USEFUL:          0  USELESS:          0
DTLB USEFUL LOAD PREFETCHES:          0 PREFETCH ISSUED TO LOWER LEVEL:          0  ACCURACY: -nan
DTLB TIMELY PREFETCHES:          0 LATE PREFETCHES: 0 DROPPED PREFETCHES: 0
DTLB PREFETCHES SAME FILL-ORIGIN LEVEL: 0 DIFFERENT FILL-ORIGIN LEVEL: 0
DTLB AVERAGE MISS LATENCY: 9.62568 cycles
DTLB RQ	ACCESS:   20898246	FORWARD:          0	MERGED:    1044939	TO_CACHE:   19853307

STLB TOTAL     ACCESS:   12221518  HIT:   12214235  MISS:       7283  HIT %:    99.9404  MISS %:  0.0595916   MPKI: 0.07283
STLB LOAD TRANSLATION ACCESS:    4797425  HIT:    4790142  MISS:       7283  HIT %:    99.8482  MISS %:   0.151811   MPKI: 0.07283
STLB TRANSLATION FROM L1D PREFETCHER ACCESS:    7424093  HIT:    7424093  MISS:          0  HIT %:        100  MISS %:          0   MPKI: 0
STLB PREFETCH  REQUESTED:          0  ISSUED:          0  USEFUL:          0  USELESS:          0
STLB USEFUL LOAD PREFETCHES:          0 PREFETCH ISSUED TO LOWER LEVEL:          0  ACCURACY: -nan
STLB TIMELY PREFETCHES:          0 LATE PREFETCHES: 0 DROPPED PREFETCHES: 0
STLB PREFETCHES SAME FILL-ORIGIN LEVEL: 0 DIFFERENT FILL-ORIGIN LEVEL: 0
STLB AVERAGE MISS LATENCY: 139.395 cycles
STLB RQ	ACCESS:   14142301	FORWARD:          0	MERGED:    1920783	TO_CACHE:   12221518

STLB Hit, L1D data hit: 0
STLB Hit, L2C data hit: 0
STLB Hit, LLC data hit: 0
STLB Hit, LLC data miss: 0
STLB STLB hints to L2: 0
L1D TOTAL     ACCESS:   30069770  HIT:   15829225  MISS:   14240545  HIT %:    52.6417  MISS %:    47.3583   MPKI: 142.405
L1D LOAD      ACCESS:   20689222  HIT:   13639724  MISS:    7049498  HIT %:    65.9267  MISS %:    34.0733   MPKI: 70.495
L1D RFO       ACCESS:     177190  HIT:     177190  MISS:          0  HIT %:        100  MISS %:          0   MPKI: 0
L1D PREFETCH  ACCESS:    9203358  HIT:    2012311  MISS:    7191047  HIT %:     21.865  MISS %:     78.135   MPKI: 71.9105
AGUS PREFETCH L1 MISS: 0
L1D PREFETCH  REQUESTED:   18764898  ISSUED:   18689752  USEFUL:     550763  USELESS:    6640292
L1D USEFUL LOAD PREFETCHES:     550763 PREFETCH ISSUED TO LOWER LEVEL:    7219598  ACCURACY: 7.62872
L1D TIMELY PREFETCHES:     550763 LATE PREFETCHES: 28546 DROPPED PREFETCHES: 0
L1D PREFETCHES SAME FILL-ORIGIN LEVEL: 7219598 DIFFERENT FILL-ORIGIN LEVEL: 0
L1D AVERAGE MISS LATENCY: 92.9744 cycles
L1D RQ	ACCESS:   27400816	FORWARD:          0	MERGED:    6675334	TO_CACHE:   20721056
L1D WQ	ACCESS:     177190	FORWARD:       4426	MERGED:          0	TO_CACHE:     177190
L1D PQ	ACCESS:    9344876	FORWARD:          0	MERGED:          0	TO_CACHE:    9344876

L1D UNIQUE REGIONS ACCESSED: 0
L1D REGIONS CONFLICTS: 0
L1D Cross Page Prefetch Requests: 0
L1D Same Page Prefetch Requests: 13720487
L1D ROI Sum of L1D PQ occupancy: 121689216
L1D PREFETCHES PUSHED FROM L2C: 0
L1I TOTAL     ACCESS:   16148645  HIT:   16148645  MISS:          0  HIT %:        100  MISS %:          0   MPKI: 0
L1I LOAD      ACCESS:   16148645  HIT:   16148645  MISS:          0  HIT %:        100  MISS %:          0   MPKI: 0
L1I PREFETCH  REQUESTED:          0  ISSUED:          0  USEFUL:          0  USELESS:          0
L1I USEFUL LOAD PREFETCHES:          0 PREFETCH ISSUED TO LOWER LEVEL:          0  ACCURACY: -nan
L1I TIMELY PREFETCHES:          0 LATE PREFETCHES: 0 DROPPED PREFETCHES: 0
L1I PREFETCHES SAME FILL-ORIGIN LEVEL: 0 DIFFERENT FILL-ORIGIN LEVEL: 0
L1I AVERAGE MISS LATENCY: -nan cycles
L1I RQ	ACCESS:   26417266	FORWARD:          0	MERGED:   10268622	TO_CACHE:   16148644

BTB TOTAL     ACCESS:   20113455  HIT:   20113450  MISS:          5  HIT %:        100  MISS %: 2.4859e-05   MPKI: 5e-05
BTB BRANCH_DIRECT_JUMP	ACCESS:          0  HIT:          0  MISS:          0
BTB BRANCH_INDIRECT	ACCESS:          0  HIT:          0  MISS:          0
BTB BRANCH_CONDITIONAL	ACCESS:   20113455  HIT:   20113450  MISS:          5
BTB BRANCH_DIRECT_CALL	ACCESS:          0  HIT:          0  MISS:          0
BTB BRANCH_INDIRECT_CALL	ACCESS:          0  HIT:          0  MISS:          0
BTB BRANCH_RETURN	ACCESS:          0  HIT:          0  MISS:          0
BTB BRANCH_OTHER ACCESS:          0  HIT:          0  MISS:          0

L2C TOTAL     ACCESS:   14389176  HIT:    3575278  MISS:   10813898  HIT %:     24.847  MISS %:     75.153   MPKI: 108.139
L2C LOAD      ACCESS:    7020953  HIT:    1790432  MISS:    5230521  HIT %:    25.5013  MISS %:    74.4987   MPKI: 52.3052
L2C DATA LOAD MPKI: 52.3052
L2C INSTRUCTION LOAD MPKI: 0
L2C PREFETCH  ACCESS:    7219593  HIT:    1637790  MISS:    5581803  HIT %:    22.6854  MISS %:    77.3146   MPKI: 55.818
AGUS PREFETCH L1 MISS: 0
L2C DATA PREFETCH MPKI: 55.818
L2C INSTRUCTION PREFETCH MPKI: 0
L2C WRITEBACK ACCESS:     141347  HIT:     141098  MISS:        249  HIT %:    99.8238  MISS %:   0.176162   MPKI: 0.00249
L2C LOAD TRANSLATION ACCESS:       7283  HIT:       5958  MISS:       1325  HIT %:    81.8069  MISS %:    18.1931   MPKI: 0.01325
L2C PREFETCH  REQUESTED:          0  ISSUED:          0  USEFUL:     253208  USELESS:    5328571
L2C USEFUL LOAD PREFETCHES:     253208 PREFETCH ISSUED TO LOWER LEVEL:    5581806  ACCURACY: 4.53631
L2C TIMELY PREFETCHES:     253208 LATE PREFETCHES: 0 DROPPED PREFETCHES: 0
L2C PREFETCHES SAME FILL-ORIGIN LEVEL: 0 DIFFERENT FILL-ORIGIN LEVEL: 0
L2C AVERAGE MISS LATENCY: 102.425 cycles
L2C RQ	ACCESS:    7028239	FORWARD:          0	MERGED:          0	TO_CACHE:    7028239
L2C WQ	ACCESS:     141347	FORWARD:          0	MERGED:          0	TO_CACHE:     141347
L2C PQ	ACCESS:    7219598	FORWARD:          0	MERGED:          0	TO_CACHE:    7219598

L2C Instructions Evicting Data 0
L2C Translations Evicting Data 1325
L2C Data Evicting Data 10810998
L2C Instructions Evicting Instructions 0
L2C Translations Evicting Instructions 0
L2C Data Evicting Instructions 0
L2C Instructions Evicting Translations 0
L2C Translations Evicting Translations 0
L2C Data Evicting Translations 1326
L2C Dense regions hint from L2: 0
PSCL5 TOTAL     ACCESS:       7283  HIT:       7283  MISS:          0  HIT %:        100  MISS %:          0   MPKI: 0
PSCL5 LOAD TRANSLATION ACCESS:       7283  HIT:       7283  MISS:          0  HIT %:        100  MISS %:          0   MPKI: 0
PSCL5 PREFETCH  REQUESTED:          0  ISSUED:          0  USEFUL:          0  USELESS:          0
PSCL5 USEFUL LOAD PREFETCHES:          0 PREFETCH ISSUED TO LOWER LEVEL:          0  ACCURACY: -nan
PSCL5 TIMELY PREFETCHES:          0 LATE PREFETCHES: 0 DROPPED PREFETCHES: 0
PSCL5 PREFETCHES SAME FILL-ORIGIN LEVEL: 0 DIFFERENT FILL-ORIGIN LEVEL: 0

PSCL4 TOTAL     ACCESS:       7283  HIT:       7283  MISS:          0  HIT %:        100  MISS %:          0   MPKI: 0
PSCL4 LOAD TRANSLATION ACCESS:       7283  HIT:       7283  MISS:          0  HIT %:        100  MISS %:          0   MPKI: 0
PSCL4 PREFETCH  REQUESTED:          0  ISSUED:          0  USEFUL:          0  USELESS:          0
PSCL4 USEFUL LOAD PREFETCHES:          0 PREFETCH ISSUED TO LOWER LEVEL:          0  ACCURACY: -nan
PSCL4 TIMELY PREFETCHES:          0 LATE PREFETCHES: 0 DROPPED PREFETCHES: 0
PSCL4 PREFETCHES SAME FILL-ORIGIN LEVEL: 0 DIFFERENT FILL-ORIGIN LEVEL: 0

PSCL3 TOTAL     ACCESS:       7283  HIT:       7283  MISS:          0  HIT %:        100  MISS %:          0   MPKI: 0
PSCL3 LOAD TRANSLATION ACCESS:       7283  HIT:       7283  MISS:          0  HIT %:        100  MISS %:          0   MPKI: 0
PSCL3 PREFETCH  REQUESTED:          0  ISSUED:          0  USEFUL:          0  USELESS:          0
PSCL3 USEFUL LOAD PREFETCHES:          0 PREFETCH ISSUED TO LOWER LEVEL:          0  ACCURACY: -nan
PSCL3 TIMELY PREFETCHES:          0 LATE PREFETCHES: 0 DROPPED PREFETCHES: 0
PSCL3 PREFETCHES SAME FILL-ORIGIN LEVEL: 0 DIFFERENT FILL-ORIGIN LEVEL: 0

PSCL2 TOTAL     ACCESS:       7283  HIT:       7268  MISS:         15  HIT %:     99.794  MISS %:   0.205959   MPKI: 0.00015
PSCL2 LOAD TRANSLATION ACCESS:       7283  HIT:       7268  MISS:         15  HIT %:     99.794  MISS %:   0.205959   MPKI: 0.00015
PSCL2 PREFETCH  REQUESTED:          0  ISSUED:          0  USEFUL:          0  USELESS:          0
PSCL2 USEFUL LOAD PREFETCHES:          0 PREFETCH ISSUED TO LOWER LEVEL:          0  ACCURACY: -nan
PSCL2 TIMELY PREFETCHES:          0 LATE PREFETCHES: 0 DROPPED PREFETCHES: 0
PSCL2 PREFETCHES SAME FILL-ORIGIN LEVEL: 0 DIFFERENT FILL-ORIGIN LEVEL: 0

LLC TOTAL     ACCESS:   10954932  HIT:    6093887  MISS:    4861045  HIT %:    55.6269  MISS %:    44.3731   MPKI: 48.6104
LLC LOAD      ACCESS:    5230522  HIT:    3061783  MISS:    2168739  HIT %:    58.5369  MISS %:    41.4631   MPKI: 21.6874
LLC PREFETCH  ACCESS:    5581803  HIT:    2890626  MISS:    2691177  HIT %:    51.7866  MISS %:    48.2134   MPKI: 26.9118
AGUS PREFETCH L1 MISS: 0
LLC WRITEBACK ACCESS:     141282  HIT:     141104  MISS:        178  HIT %:     99.874  MISS %:   0.125989   MPKI: 0.00178
LLC LOAD TRANSLATION ACCESS:       1325  HIT:        374  MISS:        951  HIT %:    28.2264  MISS %:    71.7736   MPKI: 0.00951
LLC PREFETCH  REQUESTED:          0  ISSUED:          0  USEFUL:     455598  USELESS:    2235983
LLC USEFUL LOAD PREFETCHES:     455598 PREFETCH ISSUED TO LOWER LEVEL:    2691179  ACCURACY: 16.9293
LLC TIMELY PREFETCHES:     455598 LATE PREFETCHES: 0 DROPPED PREFETCHES: 0
LLC PREFETCHES SAME FILL-ORIGIN LEVEL: 0 DIFFERENT FILL-ORIGIN LEVEL: 0
LLC AVERAGE MISS LATENCY: 161.038 cycles
LLC RQ	ACCESS:    5231849	FORWARD:          0	MERGED:          0	TO_CACHE:    5231849
LLC WQ	ACCESS:     141282	FORWARD:          0	MERGED:          0	TO_CACHE:     141282
LLC PQ	ACCESS:    5581806	FORWARD:          0	MERGED:          0	TO_CACHE:    5581806

LLC Dense regions hint to LLC: 0

RAW hits: 26910
Loads Generated: 27427727
Loads sent to L1D: 27400816
Stores Generated: 177190
Stores sent to L1D: 177190
Major fault: 0 Minor fault: 11793
Allocated PAGES: 11793

stream: 
stream:times selected: 15808830
stream:pref_filled: 9699349
stream:pref_useful: 145760
stream:pref_late: 38690
stream:misses: 2302484
stream:misses_by_poll: 0

CS: 
CS:times selected: 725724
CS:pref_filled: 698863
CS:pref_useful: 651581
CS:pref_late: 447
CS:misses: 33818
CS:misses_by_poll: 438

CPLX: 
CPLX:times selected: 14967005
CPLX:pref_filled: 211658
CPLX:pref_useful: 6563
CPLX:pref_late: 987
CPLX:misses: 7999205
CPLX:misses_by_poll: 33

NL_L1: 
NL:times selected: 44081
NL:pref_filled: 31361
NL:pref_useful: 859
NL:pref_late: 92
NL:misses: 28349
NL:misses_by_poll: 0

total selections: 31545640
total_filled: 7191047
total_useful: 550763
total_late: 41807
total_polluted: 471
total_misses_after_warmup: 7081333
conflicts: 161

test: 7481162

DRAM Statistics
 CHANNEL 0
 RQ ROW_BUFFER_HIT:    1485446  ROW_BUFFER_MISS:    3375391
 DBUS_CONGESTED:       2069
 WQ ROW_BUFFER_HIT:      62487  ROW_BUFFER_MISS:      77772  FULL:          0

 AVG_CONGESTED_CYCLE: 4
 All warmup complete: 2
Channel 0 Bank busy for read cycles: 0
Channel 0 Bank busy for write cycles: 0
Channel 0
Rank 0
0banks busy for read cycles: 171331898
0banks busy for write cycles: 103401
1banks busy for read cycles: 107301816
1banks busy for write cycles: 22277309
2banks busy for read cycles: 76801364
2banks busy for write cycles: 4335076
3banks busy for read cycles: 37930646
3banks busy for write cycles: 1162775
4banks busy for read cycles: 23855469
4banks busy for write cycles: 343198
5banks busy for read cycles: 12558543
5banks busy for write cycles: 105793
6banks busy for read cycles: 5580608
6banks busy for write cycles: 33282
7banks busy for read cycles: 1701409
7banks busy for write cycles: 8264
8banks busy for read cycles: 286266
8banks busy for write cycles: 1390

CPU 0 Branch Prediction Accuracy: 90.5619% MPKI: 19.0678 Average ROB Occupancy at Mispredict: 25.9072
Branch types
NOT_BRANCH: 79796882 79.7969%
BRANCH_DIRECT_JUMP: 0 0%
BRANCH_INDIRECT: 0 0%
BRANCH_CONDITIONAL: 20202993 20.203%
BRANCH_DIRECT_CALL: 0 0%
BRANCH_INDIRECT_CALL: 0 0%
BRANCH_RETURN: 0 0%
BRANCH_OTHER: 0 0%

DRAM PAGES: 1048576
Allocated PAGES: 11793
