
*** ChampSim Multicore Out-of-Order Simulator ***

Warmup Instructions: 50000000
Simulation Instructions: 100000000
Number of CPUs: 1
LLC sets: 2048
LLC ways: 16
Off-chip DRAM Size: 4096 MB Channels: 1 Width: 64-bit Data Rate: 6400 MT/s
CPU 0 runs ./traces/GAP/pr-14.trace.gz
.gz
CPU 0 Bimodal branch predictor
BTB has LRU replacement policy
ITLB has LRU replacement policy
DTLB has LRU replacement policy
STLB has LRU replacement policy
L1I has LRU replacement policy
L1D has LRU replacement policy
Ideal ISB Prefetching
L2C has LRU replacement policy
LLC has LRU replacement policy
Heartbeat CPU 0 instructions: 10000003 cycles: 3333433 heartbeat IPC: 2.99991 cumulative IPC: 2.99991 (Simulation time: 0 hr 0 min 19 sec) 
Heartbeat CPU 0 instructions: 20000000 cycles: 9723384 heartbeat IPC: 1.56496 cumulative IPC: 2.0569 (Simulation time: 0 hr 4 min 36 sec) 
Heartbeat CPU 0 instructions: 30000003 cycles: 16634340 heartbeat IPC: 1.44698 cumulative IPC: 1.8035 (Simulation time: 0 hr 10 min 3 sec) 
Heartbeat CPU 0 instructions: 40000000 cycles: 23519607 heartbeat IPC: 1.45238 cumulative IPC: 1.70071 (Simulation time: 0 hr 15 min 29 sec) 
Heartbeat CPU 0 instructions: 50000000 cycles: 30399334 heartbeat IPC: 1.45355 cumulative IPC: 1.64477 (Simulation time: 0 hr 21 min 3 sec) 

Warmup complete CPU 0 instructions: 50000004 cycles: 30399337 (Simulation time: 0 hr 21 min 3 sec) 

Heartbeat CPU 0 instructions: 60000000 cycles: 212631689 heartbeat IPC: 0.054875 cumulative IPC: 0.054875 (Simulation time: 0 hr 28 min 44 sec) 
Heartbeat CPU 0 instructions: 70000000 cycles: 395261009 heartbeat IPC: 0.0547557 cumulative IPC: 0.0548153 (Simulation time: 0 hr 36 min 29 sec) 
Heartbeat CPU 0 instructions: 80000000 cycles: 577806099 heartbeat IPC: 0.054781 cumulative IPC: 0.0548038 (Simulation time: 0 hr 44 min 12 sec) 
Heartbeat CPU 0 instructions: 90000000 cycles: 760412136 heartbeat IPC: 0.0547627 cumulative IPC: 0.0547936 (Simulation time: 0 hr 51 min 54 sec) 
Heartbeat CPU 0 instructions: 100000000 cycles: 942856318 heartbeat IPC: 0.0548113 cumulative IPC: 0.0547971 (Simulation time: 0 hr 59 min 43 sec) 
Heartbeat CPU 0 instructions: 110000000 cycles: 1125477412 heartbeat IPC: 0.0547582 cumulative IPC: 0.0547906 (Simulation time: 1 hr 7 min 39 sec) 
Heartbeat CPU 0 instructions: 120000000 cycles: 1307928513 heartbeat IPC: 0.0548092 cumulative IPC: 0.0547933 (Simulation time: 1 hr 15 min 34 sec) 
Heartbeat CPU 0 instructions: 130000000 cycles: 1489618860 heartbeat IPC: 0.0550387 cumulative IPC: 0.0548238 (Simulation time: 1 hr 23 min 23 sec) 
Heartbeat CPU 0 instructions: 140000000 cycles: 1672697107 heartbeat IPC: 0.0546215 cumulative IPC: 0.0548013 (Simulation time: 1 hr 31 min 20 sec) 
Heartbeat CPU 0 instructions: 150000001 cycles: 1855213183 heartbeat IPC: 0.0547897 cumulative IPC: 0.0548001 (Simulation time: 1 hr 39 min 15 sec) 
Finished CPU 0 instructions: 100000003 cycles: 1824813906 cumulative IPC: 0.0548001 (Simulation time: 1 hr 39 min 15 sec) 

ChampSim completed all CPUs

Region of Interest Statistics

CPU 0 cumulative IPC: 0.0548001 instructions: 100000003 cycles: 1824813906
ITLB TOTAL     ACCESS:   31716186  HIT:   31716186  MISS:          0  HIT %:        100  MISS %:          0   MPKI: 0
ITLB LOAD TRANSLATION ACCESS:   31716186  HIT:   31716186  MISS:          0  HIT %:        100  MISS %:          0   MPKI: 0
ITLB PREFETCH  REQUESTED:          0  ISSUED:          0  USEFUL:          0  USELESS:          0
ITLB USEFUL LOAD PREFETCHES:          0 PREFETCH ISSUED TO LOWER LEVEL:          0  ACCURACY: -nan
ITLB TIMELY PREFETCHES:          0 LATE PREFETCHES: 0 DROPPED PREFETCHES: 0
ITLB PREFETCHES SAME FILL-ORIGIN LEVEL: 0 DIFFERENT FILL-ORIGIN LEVEL: 0
ITLB AVERAGE MISS LATENCY: -nan cycles
ITLB RQ	ACCESS:   32249906	FORWARD:          0	MERGED:     533720	TO_CACHE:   31716186

DTLB TOTAL     ACCESS:   32006954  HIT:   19781915  MISS:   12225039  HIT %:    61.8051  MISS %:    38.1949   MPKI: 122.25
DTLB LOAD TRANSLATION ACCESS:   32006954  HIT:   19781915  MISS:   12225039  HIT %:    61.8051  MISS %:    38.1949   MPKI: 122.25
DTLB PREFETCH  REQUESTED:          0  ISSUED:          0  USEFUL:          0  USELESS:          0
DTLB USEFUL LOAD PREFETCHES:          0 PREFETCH ISSUED TO LOWER LEVEL:          0  ACCURACY: -nan
DTLB TIMELY PREFETCHES:          0 LATE PREFETCHES: 0 DROPPED PREFETCHES: 0
DTLB PREFETCHES SAME FILL-ORIGIN LEVEL: 0 DIFFERENT FILL-ORIGIN LEVEL: 0
DTLB AVERAGE MISS LATENCY: 9.22195 cycles
DTLB RQ	ACCESS:   32326965	FORWARD:          0	MERGED:     315609	TO_CACHE:   32011356

STLB TOTAL     ACCESS:   12225038  HIT:   12205811  MISS:      19227  HIT %:    99.8427  MISS %:   0.157276   MPKI: 0.19227
STLB LOAD TRANSLATION ACCESS:   12225038  HIT:   12205811  MISS:      19227  HIT %:    99.8427  MISS %:   0.157276   MPKI: 0.19227
STLB PREFETCH  REQUESTED:          0  ISSUED:          0  USEFUL:          0  USELESS:          0
STLB USEFUL LOAD PREFETCHES:          0 PREFETCH ISSUED TO LOWER LEVEL:          0  ACCURACY: -nan
STLB TIMELY PREFETCHES:          0 LATE PREFETCHES: 0 DROPPED PREFETCHES: 0
STLB PREFETCHES SAME FILL-ORIGIN LEVEL: 0 DIFFERENT FILL-ORIGIN LEVEL: 0
STLB AVERAGE MISS LATENCY: 135.261 cycles
STLB RQ	ACCESS:   12225038	FORWARD:          0	MERGED:          0	TO_CACHE:   12225038

STLB Hit, L1D data hit: 0
STLB Hit, L2C data hit: 0
STLB Hit, LLC data hit: 0
STLB Hit, LLC data miss: 0
STLB STLB hints to L2: 0
L1D TOTAL     ACCESS:   30178663  HIT:   11996684  MISS:   18181979  HIT %:    39.7522  MISS %:    60.2478   MPKI: 181.82
L1D LOAD      ACCESS:   28982333  HIT:   10800354  MISS:   18181979  HIT %:    37.2653  MISS %:    62.7347   MPKI: 181.82
L1D RFO       ACCESS:    1196330  HIT:    1196330  MISS:          0  HIT %:        100  MISS %:          0   MPKI: 0
L1D PREFETCH  REQUESTED:          0  ISSUED:          0  USEFUL:          0  USELESS:          0
L1D USEFUL LOAD PREFETCHES:          0 PREFETCH ISSUED TO LOWER LEVEL:          0  ACCURACY: -nan
L1D TIMELY PREFETCHES:          0 LATE PREFETCHES: 0 DROPPED PREFETCHES: 0
L1D PREFETCHES SAME FILL-ORIGIN LEVEL: 0 DIFFERENT FILL-ORIGIN LEVEL: 0
L1D AVERAGE MISS LATENCY: 91.6279 cycles
L1D RQ	ACCESS:   39374242	FORWARD:          0	MERGED:    8243607	TO_CACHE:   31130635
L1D WQ	ACCESS:    1196330	FORWARD:          0	MERGED:          0	TO_CACHE:    1196330

L1D UNIQUE REGIONS ACCESSED: 0
L1D REGIONS CONFLICTS: 0
L1D Cross Page Prefetch Requests: 0
L1D Same Page Prefetch Requests: 0
L1D ROI Sum of L1D PQ occupancy: 0
L1D PREFETCHES PUSHED FROM L2C: 0
L1I TOTAL     ACCESS:   32249906  HIT:   32249906  MISS:          0  HIT %:        100  MISS %:          0   MPKI: 0
L1I LOAD      ACCESS:   32249906  HIT:   32249906  MISS:          0  HIT %:        100  MISS %:          0   MPKI: 0
L1I PREFETCH  REQUESTED:          0  ISSUED:          0  USEFUL:          0  USELESS:          0
L1I USEFUL LOAD PREFETCHES:          0 PREFETCH ISSUED TO LOWER LEVEL:          0  ACCURACY: -nan
L1I TIMELY PREFETCHES:          0 LATE PREFETCHES: 0 DROPPED PREFETCHES: 0
L1I PREFETCHES SAME FILL-ORIGIN LEVEL: 0 DIFFERENT FILL-ORIGIN LEVEL: 0
L1I AVERAGE MISS LATENCY: -nan cycles
L1I RQ	ACCESS:   49235477	FORWARD:          0	MERGED:   16985571	TO_CACHE:   32249906

BTB TOTAL     ACCESS:   19088943  HIT:   19088940  MISS:          3  HIT %:        100  MISS %: 1.57159e-05   MPKI: 3e-05
BTB BRANCH_DIRECT_JUMP	ACCESS:          0  HIT:          0  MISS:          0
BTB BRANCH_INDIRECT	ACCESS:          0  HIT:          0  MISS:          0
BTB BRANCH_CONDITIONAL	ACCESS:   19088943  HIT:   19088940  MISS:          3
BTB BRANCH_DIRECT_CALL	ACCESS:          0  HIT:          0  MISS:          0
BTB BRANCH_INDIRECT_CALL	ACCESS:          0  HIT:          0  MISS:          0
BTB BRANCH_RETURN	ACCESS:          0  HIT:          0  MISS:          0
BTB BRANCH_OTHER ACCESS:          0  HIT:          0  MISS:          0

L2C TOTAL     ACCESS:   32802302  HIT:    7664662  MISS:   25137640  HIT %:    23.3662  MISS %:    76.6338   MPKI: 251.376
L2C LOAD      ACCESS:   18181979  HIT:    4713502  MISS:   13468477  HIT %:     25.924  MISS %:     74.076   MPKI: 134.685
L2C DATA LOAD MPKI: 134.685
L2C INSTRUCTION LOAD MPKI: 0
L2C PREFETCH  ACCESS:   14555718  HIT:    2891773  MISS:   11663945  HIT %:    19.8669  MISS %:    80.1331   MPKI: 116.639
AGUS PREFETCH L1 MISS: 0
L2C DATA PREFETCH MPKI: 116.639
L2C INSTRUCTION PREFETCH MPKI: 0
L2C WRITEBACK ACCESS:      45373  HIT:      44074  MISS:       1299  HIT %:    97.1371  MISS %:    2.86294   MPKI: 0.01299
L2C LOAD TRANSLATION ACCESS:      19232  HIT:      15313  MISS:       3919  HIT %:    79.6225  MISS %:    20.3775   MPKI: 0.03919
L2C PREFETCH  REQUESTED:   14562240  ISSUED:   14562197  USEFUL:    1427454  USELESS:   10236442
L2C USEFUL LOAD PREFETCHES:    1427454 PREFETCH ISSUED TO LOWER LEVEL:   11668681  ACCURACY: 12.2332
L2C TIMELY PREFETCHES:    1427454 LATE PREFETCHES: 4736 DROPPED PREFETCHES: 0
L2C PREFETCHES SAME FILL-ORIGIN LEVEL: 11668681 DIFFERENT FILL-ORIGIN LEVEL: 0
L2C AVERAGE MISS LATENCY: 91.0391 cycles
L2C RQ	ACCESS:   18201212	FORWARD:          0	MERGED:          0	TO_CACHE:   18201212
L2C WQ	ACCESS:      45373	FORWARD:          0	MERGED:          0	TO_CACHE:      45373
L2C PQ	ACCESS:   14562197	FORWARD:          0	MERGED:        256	TO_CACHE:   14561941

L2C Instructions Evicting Data 0
L2C Translations Evicting Data 3919
L2C Data Evicting Data 25128503
L2C Instructions Evicting Instructions 0
L2C Translations Evicting Instructions 0
L2C Data Evicting Instructions 0
L2C Instructions Evicting Translations 0
L2C Translations Evicting Translations 0
L2C Data Evicting Translations 3919
L2C Dense regions hint from L2: 0
PSCL5 TOTAL     ACCESS:      19227  HIT:      19227  MISS:          0  HIT %:        100  MISS %:          0   MPKI: 0
PSCL5 LOAD TRANSLATION ACCESS:      19227  HIT:      19227  MISS:          0  HIT %:        100  MISS %:          0   MPKI: 0
PSCL5 PREFETCH  REQUESTED:          0  ISSUED:          0  USEFUL:          0  USELESS:          0
PSCL5 USEFUL LOAD PREFETCHES:          0 PREFETCH ISSUED TO LOWER LEVEL:          0  ACCURACY: -nan
PSCL5 TIMELY PREFETCHES:          0 LATE PREFETCHES: 0 DROPPED PREFETCHES: 0
PSCL5 PREFETCHES SAME FILL-ORIGIN LEVEL: 0 DIFFERENT FILL-ORIGIN LEVEL: 0

PSCL4 TOTAL     ACCESS:      19227  HIT:      19227  MISS:          0  HIT %:        100  MISS %:          0   MPKI: 0
PSCL4 LOAD TRANSLATION ACCESS:      19227  HIT:      19227  MISS:          0  HIT %:        100  MISS %:          0   MPKI: 0
PSCL4 PREFETCH  REQUESTED:          0  ISSUED:          0  USEFUL:          0  USELESS:          0
PSCL4 USEFUL LOAD PREFETCHES:          0 PREFETCH ISSUED TO LOWER LEVEL:          0  ACCURACY: -nan
PSCL4 TIMELY PREFETCHES:          0 LATE PREFETCHES: 0 DROPPED PREFETCHES: 0
PSCL4 PREFETCHES SAME FILL-ORIGIN LEVEL: 0 DIFFERENT FILL-ORIGIN LEVEL: 0

PSCL3 TOTAL     ACCESS:      19227  HIT:      19227  MISS:          0  HIT %:        100  MISS %:          0   MPKI: 0
PSCL3 LOAD TRANSLATION ACCESS:      19227  HIT:      19227  MISS:          0  HIT %:        100  MISS %:          0   MPKI: 0
PSCL3 PREFETCH  REQUESTED:          0  ISSUED:          0  USEFUL:          0  USELESS:          0
PSCL3 USEFUL LOAD PREFETCHES:          0 PREFETCH ISSUED TO LOWER LEVEL:          0  ACCURACY: -nan
PSCL3 TIMELY PREFETCHES:          0 LATE PREFETCHES: 0 DROPPED PREFETCHES: 0
PSCL3 PREFETCHES SAME FILL-ORIGIN LEVEL: 0 DIFFERENT FILL-ORIGIN LEVEL: 0

PSCL2 TOTAL     ACCESS:      19227  HIT:      19188  MISS:         39  HIT %:    99.7972  MISS %:    0.20284   MPKI: 0.00039
PSCL2 LOAD TRANSLATION ACCESS:      19227  HIT:      19188  MISS:         39  HIT %:    99.7972  MISS %:    0.20284   MPKI: 0.00039
PSCL2 PREFETCH  REQUESTED:          0  ISSUED:          0  USEFUL:          0  USELESS:          0
PSCL2 USEFUL LOAD PREFETCHES:          0 PREFETCH ISSUED TO LOWER LEVEL:          0  ACCURACY: -nan
PSCL2 TIMELY PREFETCHES:          0 LATE PREFETCHES: 0 DROPPED PREFETCHES: 0
PSCL2 PREFETCHES SAME FILL-ORIGIN LEVEL: 0 DIFFERENT FILL-ORIGIN LEVEL: 0

LLC TOTAL     ACCESS:   25175988  HIT:   16122079  MISS:    9053909  HIT %:    64.0375  MISS %:    35.9625   MPKI: 90.5391
LLC LOAD      ACCESS:   13463741  HIT:    7377589  MISS:    6086152  HIT %:     54.796  MISS %:     45.204   MPKI: 60.8615
LLC PREFETCH  ACCESS:   11668681  HIT:    8704022  MISS:    2964659  HIT %:     74.593  MISS %:     25.407   MPKI: 29.6466
AGUS PREFETCH L1 MISS: 0
LLC WRITEBACK ACCESS:      39647  HIT:      39411  MISS:        236  HIT %:    99.4047  MISS %:   0.595253   MPKI: 0.00236
LLC LOAD TRANSLATION ACCESS:       3919  HIT:       1057  MISS:       2862  HIT %:    26.9712  MISS %:    73.0288   MPKI: 0.02862
LLC PREFETCH  REQUESTED:          0  ISSUED:          0  USEFUL:     756168  USELESS:    2208521
LLC USEFUL LOAD PREFETCHES:     756168 PREFETCH ISSUED TO LOWER LEVEL:    2964659  ACCURACY: 25.5061
LLC TIMELY PREFETCHES:     756168 LATE PREFETCHES: 0 DROPPED PREFETCHES: 0
LLC PREFETCHES SAME FILL-ORIGIN LEVEL: 0 DIFFERENT FILL-ORIGIN LEVEL: 0
LLC AVERAGE MISS LATENCY: 169.396 cycles
LLC RQ	ACCESS:   13467661	FORWARD:          0	MERGED:          0	TO_CACHE:   13467661
LLC WQ	ACCESS:      39647	FORWARD:          0	MERGED:          0	TO_CACHE:      39647
LLC PQ	ACCESS:   11668681	FORWARD:          0	MERGED:          0	TO_CACHE:   11668681

LLC Dense regions hint to LLC: 0

RAW hits: 0
Loads Generated: 39374243
Loads sent to L1D: 39374242
Stores Generated: 1196330
Stores sent to L1D: 1196330
Major fault: 0 Minor fault: 28425
Allocated PAGES: 28425
Prefetcher final stats
Training Unit Size: 67
Addr table size: 1805701 1805701


Triggers: 18883189
No Prediction: 3395749 17.9829
Stream end: 15342662
No translation: 2696090018 14277.7
Predictions: 20431100 108.197


Stream divergence: 4310184 22.8255
Stream divergence -- new stream: 0

DRAM Statistics
 CHANNEL 0
 RQ ROW_BUFFER_HIT:     842607  ROW_BUFFER_MISS:    8211066
 DBUS_CONGESTED:         57
 WQ ROW_BUFFER_HIT:       9153  ROW_BUFFER_MISS:      28545  FULL:          0

 AVG_CONGESTED_CYCLE: 4
 All warmup complete: 2
Channel 0 Bank busy for read cycles: 0
Channel 0 Bank busy for write cycles: 0
Channel 0
Rank 0
0banks busy for read cycles: 923593613
0banks busy for write cycles: 36215
1banks busy for read cycles: 617519769
1banks busy for write cycles: 7369960
2banks busy for read cycles: 200496555
2banks busy for write cycles: 235551
3banks busy for read cycles: 57227842
3banks busy for write cycles: 8036
4banks busy for read cycles: 13481495
4banks busy for write cycles: 545
5banks busy for read cycles: 2635937
5banks busy for write cycles: 0
6banks busy for read cycles: 490906
6banks busy for write cycles: 0
7banks busy for read cycles: 196261
7banks busy for write cycles: 0
8banks busy for read cycles: 1521222
8banks busy for write cycles: 0

CPU 0 Branch Prediction Accuracy: 96.3239% MPKI: 7.01722 Average ROB Occupancy at Mispredict: 115.255
Branch types
NOT_BRANCH: 80910983 80.911%
BRANCH_DIRECT_JUMP: 0 0%
BRANCH_INDIRECT: 0 0%
BRANCH_CONDITIONAL: 19088945 19.0889%
BRANCH_DIRECT_CALL: 0 0%
BRANCH_INDIRECT_CALL: 0 0%
BRANCH_RETURN: 0 0%
BRANCH_OTHER: 0 0%

DRAM PAGES: 1048576
Allocated PAGES: 28425
