
*** ChampSim Multicore Out-of-Order Simulator ***

Warmup Instructions: 50000000
Simulation Instructions: 100000000
Number of CPUs: 1
LLC sets: 2048
LLC ways: 16
Off-chip DRAM Size: 4096 MB Channels: 1 Width: 64-bit Data Rate: 6400 MT/s
CPU 0 runs ./traces/GAP/pr-10.trace.gz
.gz
CPU 0 Bimodal branch predictor
BTB has LRU replacement policy
ITLB has LRU replacement policy
DTLB has LRU replacement policy
STLB has LRU replacement policy
L1I has LRU replacement policy
Ideal ISB Prefetching
L1D has LRU replacement policy
L2C has LRU replacement policy
LLC has LRU replacement policy
Heartbeat CPU 0 instructions: 10000002 cycles: 3333434 heartbeat IPC: 2.99991 cumulative IPC: 2.99991 (Simulation time: 0 hr 0 min 19 sec) 
Heartbeat CPU 0 instructions: 20000000 cycles: 10052770 heartbeat IPC: 1.48824 cumulative IPC: 1.9895 (Simulation time: 0 hr 6 min 27 sec) 
Heartbeat CPU 0 instructions: 30000003 cycles: 17311296 heartbeat IPC: 1.37769 cumulative IPC: 1.73297 (Simulation time: 0 hr 14 min 4 sec) 
Heartbeat CPU 0 instructions: 40000000 cycles: 24541876 heartbeat IPC: 1.38301 cumulative IPC: 1.62987 (Simulation time: 0 hr 21 min 43 sec) 
Heartbeat CPU 0 instructions: 50000001 cycles: 31693776 heartbeat IPC: 1.39823 cumulative IPC: 1.5776 (Simulation time: 0 hr 29 min 29 sec) 

Warmup complete CPU 0 instructions: 50000001 cycles: 31693776 (Simulation time: 0 hr 29 min 29 sec) 

Heartbeat CPU 0 instructions: 60000000 cycles: 223716335 heartbeat IPC: 0.0520772 cumulative IPC: 0.0520772 (Simulation time: 0 hr 40 min 1 sec) 
Heartbeat CPU 0 instructions: 70000000 cycles: 415140044 heartbeat IPC: 0.0522401 cumulative IPC: 0.0521585 (Simulation time: 0 hr 50 min 32 sec) 
Heartbeat CPU 0 instructions: 80000000 cycles: 606177585 heartbeat IPC: 0.0523457 cumulative IPC: 0.0522208 (Simulation time: 1 hr 1 min 1 sec) 
Heartbeat CPU 0 instructions: 90000000 cycles: 797781873 heartbeat IPC: 0.0521909 cumulative IPC: 0.0522133 (Simulation time: 1 hr 11 min 29 sec) 
Heartbeat CPU 0 instructions: 100000000 cycles: 990132605 heartbeat IPC: 0.0519884 cumulative IPC: 0.0521682 (Simulation time: 1 hr 22 min 9 sec) 
Heartbeat CPU 0 instructions: 110000002 cycles: 1181315034 heartbeat IPC: 0.0523061 cumulative IPC: 0.0521911 (Simulation time: 1 hr 32 min 59 sec) 
Heartbeat CPU 0 instructions: 120000000 cycles: 1372659994 heartbeat IPC: 0.0522616 cumulative IPC: 0.0522012 (Simulation time: 1 hr 43 min 43 sec) 
Heartbeat CPU 0 instructions: 130000001 cycles: 1563941578 heartbeat IPC: 0.052279 cumulative IPC: 0.0522109 (Simulation time: 1 hr 54 min 23 sec) 
Heartbeat CPU 0 instructions: 140000000 cycles: 1754261764 heartbeat IPC: 0.052543 cumulative IPC: 0.0522476 (Simulation time: 2 hr 10 min 48 sec) 
Heartbeat CPU 0 instructions: 150000000 cycles: 1946462404 heartbeat IPC: 0.052029 cumulative IPC: 0.0522256 (Simulation time: 2 hr 28 min 37 sec) 
Finished CPU 0 instructions: 100000000 cycles: 1914768629 cumulative IPC: 0.0522256 (Simulation time: 2 hr 28 min 37 sec) 

ChampSim completed all CPUs

Region of Interest Statistics

CPU 0 cumulative IPC: 0.0522256 instructions: 100000000 cycles: 1914768629
ITLB TOTAL     ACCESS:   31709071  HIT:   31709071  MISS:          0  HIT %:        100  MISS %:          0   MPKI: 0
ITLB LOAD TRANSLATION ACCESS:   31709071  HIT:   31709071  MISS:          0  HIT %:        100  MISS %:          0   MPKI: 0
ITLB PREFETCH  REQUESTED:          0  ISSUED:          0  USEFUL:          0  USELESS:          0
ITLB USEFUL LOAD PREFETCHES:          0 PREFETCH ISSUED TO LOWER LEVEL:          0  ACCURACY: -nan
ITLB TIMELY PREFETCHES:          0 LATE PREFETCHES: 0 DROPPED PREFETCHES: 0
ITLB PREFETCHES SAME FILL-ORIGIN LEVEL: 0 DIFFERENT FILL-ORIGIN LEVEL: 0
ITLB AVERAGE MISS LATENCY: -nan cycles
ITLB RQ	ACCESS:   32246003	FORWARD:          0	MERGED:     536931	TO_CACHE:   31709072

DTLB TOTAL     ACCESS:   32022648  HIT:   19791572  MISS:   12231076  HIT %:    61.8049  MISS %:    38.1951   MPKI: 122.311
DTLB LOAD TRANSLATION ACCESS:   32022648  HIT:   19791572  MISS:   12231076  HIT %:    61.8049  MISS %:    38.1951   MPKI: 122.311
DTLB PREFETCH  REQUESTED:          0  ISSUED:          0  USEFUL:          0  USELESS:          0
DTLB USEFUL LOAD PREFETCHES:          0 PREFETCH ISSUED TO LOWER LEVEL:          0  ACCURACY: -nan
DTLB TIMELY PREFETCHES:          0 LATE PREFETCHES: 0 DROPPED PREFETCHES: 0
DTLB PREFETCHES SAME FILL-ORIGIN LEVEL: 0 DIFFERENT FILL-ORIGIN LEVEL: 0
DTLB AVERAGE MISS LATENCY: 9.20578 cycles
DTLB RQ	ACCESS:   32345206	FORWARD:          0	MERGED:     318249	TO_CACHE:   32026957

STLB TOTAL     ACCESS:   29111618  HIT:   29092394  MISS:      19224  HIT %:     99.934  MISS %:  0.0660355   MPKI: 0.19224
STLB LOAD TRANSLATION ACCESS:   12231076  HIT:   12213610  MISS:      17466  HIT %:    99.8572  MISS %:     0.1428   MPKI: 0.17466
STLB TRANSLATION FROM L1D PREFETCHER ACCESS:   16880542  HIT:   16878784  MISS:       1758  HIT %:    99.9896  MISS %:  0.0104144   MPKI: 0.01758
STLB PREFETCH  REQUESTED:          0  ISSUED:          0  USEFUL:       1758  USELESS:          0
STLB USEFUL LOAD PREFETCHES:       1758 PREFETCH ISSUED TO LOWER LEVEL:          0  ACCURACY: inf
STLB TIMELY PREFETCHES:       1758 LATE PREFETCHES: 0 DROPPED PREFETCHES: 0
STLB PREFETCHES SAME FILL-ORIGIN LEVEL: 0 DIFFERENT FILL-ORIGIN LEVEL: 0
STLB AVERAGE MISS LATENCY: 132.563 cycles
STLB RQ	ACCESS:   31565360	FORWARD:          0	MERGED:    2453746	TO_CACHE:   29111614

STLB Hit, L1D data hit: 0
STLB Hit, L2C data hit: 0
STLB Hit, LLC data hit: 0
STLB Hit, LLC data miss: 0
STLB STLB hints to L2: 0
L1D TOTAL     ACCESS:   49561587  HIT:   12886977  MISS:   36674610  HIT %:    26.0019  MISS %:    73.9981   MPKI: 366.746
L1D LOAD      ACCESS:   29045110  HIT:   11287643  MISS:   17757467  HIT %:    38.8625  MISS %:    61.1375   MPKI: 177.575
L1D RFO       ACCESS:    1202808  HIT:    1202808  MISS:          0  HIT %:        100  MISS %:          0   MPKI: 0
L1D PREFETCH  ACCESS:   19313669  HIT:     396526  MISS:   18917143  HIT %:    2.05308  MISS %:    97.9469   MPKI: 189.171
AGUS PREFETCH L1 MISS: 0
L1D PREFETCH  REQUESTED:   38753220  ISSUED:   38668707  USEFUL:     825567  USELESS:   18091569
L1D USEFUL LOAD PREFETCHES:     825567 PREFETCH ISSUED TO LOWER LEVEL:   18927157  ACCURACY: 4.36181
L1D TIMELY PREFETCHES:     825567 LATE PREFETCHES: 10016 DROPPED PREFETCHES: 0
L1D PREFETCHES SAME FILL-ORIGIN LEVEL: 18927157 DIFFERENT FILL-ORIGIN LEVEL: 0
L1D AVERAGE MISS LATENCY: 83.6331 cycles
L1D RQ	ACCESS:   39370673	FORWARD:          0	MERGED:    8228275	TO_CACHE:   31142398
L1D WQ	ACCESS:    1202808	FORWARD:          0	MERGED:          0	TO_CACHE:    1202808
L1D PQ	ACCESS:   19334423	FORWARD:          0	MERGED:        139	TO_CACHE:   19334284

L1D UNIQUE REGIONS ACCESSED: 0
L1D REGIONS CONFLICTS: 0
L1D Cross Page Prefetch Requests: 22918779
L1D Same Page Prefetch Requests: 3886623
L1D ROI Sum of L1D PQ occupancy: 269654865
L1D PREFETCHES PUSHED FROM L2C: 0
L1I TOTAL     ACCESS:   32246002  HIT:   32246002  MISS:          0  HIT %:        100  MISS %:          0   MPKI: 0
L1I LOAD      ACCESS:   32246002  HIT:   32246002  MISS:          0  HIT %:        100  MISS %:          0   MPKI: 0
L1I PREFETCH  REQUESTED:          0  ISSUED:          0  USEFUL:          0  USELESS:          0
L1I USEFUL LOAD PREFETCHES:          0 PREFETCH ISSUED TO LOWER LEVEL:          0  ACCURACY: -nan
L1I TIMELY PREFETCHES:          0 LATE PREFETCHES: 0 DROPPED PREFETCHES: 0
L1I PREFETCHES SAME FILL-ORIGIN LEVEL: 0 DIFFERENT FILL-ORIGIN LEVEL: 0
L1I AVERAGE MISS LATENCY: -nan cycles
L1I RQ	ACCESS:   49208512	FORWARD:          0	MERGED:   16962509	TO_CACHE:   32246003

BTB TOTAL     ACCESS:   19083928  HIT:   19083925  MISS:          3  HIT %:        100  MISS %:  1.572e-05   MPKI: 3e-05
BTB BRANCH_DIRECT_JUMP	ACCESS:          0  HIT:          0  MISS:          0
BTB BRANCH_INDIRECT	ACCESS:          0  HIT:          0  MISS:          0
BTB BRANCH_CONDITIONAL	ACCESS:   19083928  HIT:   19083925  MISS:          3
BTB BRANCH_DIRECT_CALL	ACCESS:          0  HIT:          0  MISS:          0
BTB BRANCH_INDIRECT_CALL	ACCESS:          0  HIT:          0  MISS:          0
BTB BRANCH_RETURN	ACCESS:          0  HIT:          0  MISS:          0
BTB BRANCH_OTHER ACCESS:          0  HIT:          0  MISS:          0

L2C TOTAL     ACCESS:   36751251  HIT:   11065605  MISS:   25685646  HIT %:    30.1095  MISS %:    69.8905   MPKI: 256.856
L2C LOAD      ACCESS:   17747437  HIT:    4202579  MISS:   13544858  HIT %:    23.6799  MISS %:    76.3201   MPKI: 135.449
L2C DATA LOAD MPKI: 135.449
L2C INSTRUCTION LOAD MPKI: 0
L2C PREFETCH  ACCESS:   18927159  HIT:    6790551  MISS:   12136608  HIT %:    35.8773  MISS %:    64.1227   MPKI: 121.366
AGUS PREFETCH L1 MISS: 0
L2C DATA PREFETCH MPKI: 121.366
L2C INSTRUCTION PREFETCH MPKI: 0
L2C WRITEBACK ACCESS:      57426  HIT:      57343  MISS:         83  HIT %:    99.8555  MISS %:   0.144534   MPKI: 0.00083
L2C LOAD TRANSLATION ACCESS:      17466  HIT:      15041  MISS:       2425  HIT %:    86.1159  MISS %:    13.8841   MPKI: 0.02425
L2C TRANSLATION FROM L1D PREFETCHER ACCESS:       1763  HIT:         91  MISS:       1672  HIT %:    5.16166  MISS %:    94.8383   MPKI: 0.01672
L2C PREFETCH  REQUESTED:          0  ISSUED:          0  USEFUL:     917828  USELESS:   11220334
L2C USEFUL LOAD PREFETCHES:     917828 PREFETCH ISSUED TO LOWER LEVEL:   12136608  ACCURACY: 7.56248
L2C TIMELY PREFETCHES:     917828 LATE PREFETCHES: 0 DROPPED PREFETCHES: 0
L2C PREFETCHES SAME FILL-ORIGIN LEVEL: 0 DIFFERENT FILL-ORIGIN LEVEL: 0
L2C AVERAGE MISS LATENCY: 97.8669 cycles
L2C RQ	ACCESS:   17766678	FORWARD:          0	MERGED:          0	TO_CACHE:   17766665
L2C WQ	ACCESS:      57426	FORWARD:         13	MERGED:          0	TO_CACHE:      57426
L2C PQ	ACCESS:   18927157	FORWARD:          0	MERGED:          0	TO_CACHE:   18927157

L2C Instructions Evicting Data 0
L2C Translations Evicting Data 4097
L2C Data Evicting Data 25677368
L2C Instructions Evicting Instructions 0
L2C Translations Evicting Instructions 0
L2C Data Evicting Instructions 0
L2C Instructions Evicting Translations 0
L2C Translations Evicting Translations 0
L2C Data Evicting Translations 4098
L2C Dense regions hint from L2: 0
PSCL5 TOTAL     ACCESS:      19224  HIT:      19224  MISS:          0  HIT %:        100  MISS %:          0   MPKI: 0
PSCL5 LOAD TRANSLATION ACCESS:      17466  HIT:      17466  MISS:          0  HIT %:        100  MISS %:          0   MPKI: 0
PSCL5 TRANSLATION FROM L1D PREFETCHER ACCESS:       1758  HIT:       1758  MISS:          0  HIT %:        100  MISS %:          0   MPKI: 0
PSCL5 PREFETCH  REQUESTED:          0  ISSUED:          0  USEFUL:          0  USELESS:          0
PSCL5 USEFUL LOAD PREFETCHES:          0 PREFETCH ISSUED TO LOWER LEVEL:          0  ACCURACY: -nan
PSCL5 TIMELY PREFETCHES:          0 LATE PREFETCHES: 0 DROPPED PREFETCHES: 0
PSCL5 PREFETCHES SAME FILL-ORIGIN LEVEL: 0 DIFFERENT FILL-ORIGIN LEVEL: 0

PSCL4 TOTAL     ACCESS:      19224  HIT:      19224  MISS:          0  HIT %:        100  MISS %:          0   MPKI: 0
PSCL4 LOAD TRANSLATION ACCESS:      17466  HIT:      17466  MISS:          0  HIT %:        100  MISS %:          0   MPKI: 0
PSCL4 TRANSLATION FROM L1D PREFETCHER ACCESS:       1758  HIT:       1758  MISS:          0  HIT %:        100  MISS %:          0   MPKI: 0
PSCL4 PREFETCH  REQUESTED:          0  ISSUED:          0  USEFUL:          0  USELESS:          0
PSCL4 USEFUL LOAD PREFETCHES:          0 PREFETCH ISSUED TO LOWER LEVEL:          0  ACCURACY: -nan
PSCL4 TIMELY PREFETCHES:          0 LATE PREFETCHES: 0 DROPPED PREFETCHES: 0
PSCL4 PREFETCHES SAME FILL-ORIGIN LEVEL: 0 DIFFERENT FILL-ORIGIN LEVEL: 0

PSCL3 TOTAL     ACCESS:      19224  HIT:      19224  MISS:          0  HIT %:        100  MISS %:          0   MPKI: 0
PSCL3 LOAD TRANSLATION ACCESS:      17466  HIT:      17466  MISS:          0  HIT %:        100  MISS %:          0   MPKI: 0
PSCL3 TRANSLATION FROM L1D PREFETCHER ACCESS:       1758  HIT:       1758  MISS:          0  HIT %:        100  MISS %:          0   MPKI: 0
PSCL3 PREFETCH  REQUESTED:          0  ISSUED:          0  USEFUL:          0  USELESS:          0
PSCL3 USEFUL LOAD PREFETCHES:          0 PREFETCH ISSUED TO LOWER LEVEL:          0  ACCURACY: -nan
PSCL3 TIMELY PREFETCHES:          0 LATE PREFETCHES: 0 DROPPED PREFETCHES: 0
PSCL3 PREFETCHES SAME FILL-ORIGIN LEVEL: 0 DIFFERENT FILL-ORIGIN LEVEL: 0

PSCL2 TOTAL     ACCESS:      19224  HIT:      19185  MISS:         39  HIT %:    99.7971  MISS %:   0.202871   MPKI: 0.00039
PSCL2 LOAD TRANSLATION ACCESS:      17471  HIT:      17432  MISS:         39  HIT %:    99.7768  MISS %:   0.223227   MPKI: 0.00039
PSCL2 TRANSLATION FROM L1D PREFETCHER ACCESS:       1753  HIT:       1753  MISS:          0  HIT %:        100  MISS %:          0   MPKI: 0
PSCL2 PREFETCH  REQUESTED:          0  ISSUED:          0  USEFUL:          0  USELESS:          0
PSCL2 USEFUL LOAD PREFETCHES:          0 PREFETCH ISSUED TO LOWER LEVEL:          0  ACCURACY: -nan
PSCL2 TIMELY PREFETCHES:          0 LATE PREFETCHES: 0 DROPPED PREFETCHES: 0
PSCL2 PREFETCHES SAME FILL-ORIGIN LEVEL: 0 DIFFERENT FILL-ORIGIN LEVEL: 0

LLC TOTAL     ACCESS:   25723787  HIT:   15399347  MISS:   10324440  HIT %:    59.8642  MISS %:    40.1358   MPKI: 103.244
LLC LOAD      ACCESS:   13544858  HIT:    6836767  MISS:    6708091  HIT %:     50.475  MISS %:     49.525   MPKI: 67.0809
LLC PREFETCH  ACCESS:   12136608  HIT:    8522861  MISS:    3613747  HIT %:    70.2244  MISS %:    29.7756   MPKI: 36.1375
AGUS PREFETCH L1 MISS: 0
LLC WRITEBACK ACCESS:      38224  HIT:      38155  MISS:         69  HIT %:    99.8195  MISS %:   0.180515   MPKI: 0.00069
LLC LOAD TRANSLATION ACCESS:       2425  HIT:        206  MISS:       2219  HIT %:    8.49485  MISS %:    91.5052   MPKI: 0.02219
LLC TRANSLATION FROM L1D PREFETCHER ACCESS:       1672  HIT:       1358  MISS:        314  HIT %:    81.2201  MISS %:    18.7799   MPKI: 0.00314
LLC PREFETCH  REQUESTED:          0  ISSUED:          0  USEFUL:     716164  USELESS:    2897831
LLC USEFUL LOAD PREFETCHES:     716164 PREFETCH ISSUED TO LOWER LEVEL:    3613747  ACCURACY: 19.8178
LLC TIMELY PREFETCHES:     716164 LATE PREFETCHES: 0 DROPPED PREFETCHES: 0
LLC PREFETCHES SAME FILL-ORIGIN LEVEL: 0 DIFFERENT FILL-ORIGIN LEVEL: 0
LLC AVERAGE MISS LATENCY: 168.772 cycles
LLC RQ	ACCESS:   13548954	FORWARD:          0	MERGED:          0	TO_CACHE:   13548954
LLC WQ	ACCESS:      38224	FORWARD:          0	MERGED:          0	TO_CACHE:      38224
LLC PQ	ACCESS:   12136608	FORWARD:          0	MERGED:          0	TO_CACHE:   12136608

LLC Dense regions hint to LLC: 0

RAW hits: 0
Loads Generated: 39370675
Loads sent to L1D: 39370673
Stores Generated: 1202808
Stores sent to L1D: 1202808
Major fault: 0 Minor fault: 28423
Allocated PAGES: 28423
Prefetcher final stats
Training Unit Size: 69
Addr table size: 1805391 1805391


Triggers: 26251536
No Prediction: 3913293 14.9069
Stream end: 22140984
No translation: 447761607 1705.66
Predictions: 26805402 102.11


Stream divergence: 5602564 21.3419
Stream divergence -- new stream: 0

DRAM Statistics
 CHANNEL 0
 RQ ROW_BUFFER_HIT:    1096146  ROW_BUFFER_MISS:    9228224
 DBUS_CONGESTED:         55
 WQ ROW_BUFFER_HIT:      10336  ROW_BUFFER_MISS:      27337  FULL:          0

 AVG_CONGESTED_CYCLE: 4
 All warmup complete: 2
Channel 0 Bank busy for read cycles: 0
Channel 0 Bank busy for write cycles: 0
Channel 0
Rank 0
0banks busy for read cycles: 917022788
0banks busy for write cycles: 36135
1banks busy for read cycles: 668902687
1banks busy for write cycles: 7969844
2banks busy for read cycles: 225006064
2banks busy for write cycles: 268515
3banks busy for read cycles: 70336068
3banks busy for write cycles: 10742
4banks busy for read cycles: 19034328
4banks busy for write cycles: 503
5banks busy for read cycles: 4673675
5banks busy for write cycles: 225
6banks busy for read cycles: 1085830
6banks busy for write cycles: 0
7banks busy for read cycles: 270981
7banks busy for write cycles: 0
8banks busy for read cycles: 150245
8banks busy for write cycles: 0

CPU 0 Branch Prediction Accuracy: 96.2997% MPKI: 7.06157 Average ROB Occupancy at Mispredict: 116.054
Branch types
NOT_BRANCH: 80916073 80.9161%
BRANCH_DIRECT_JUMP: 0 0%
BRANCH_INDIRECT: 0 0%
BRANCH_CONDITIONAL: 19083929 19.0839%
BRANCH_DIRECT_CALL: 0 0%
BRANCH_INDIRECT_CALL: 0 0%
BRANCH_RETURN: 0 0%
BRANCH_OTHER: 0 0%

DRAM PAGES: 1048576
Allocated PAGES: 28423
