
*** ChampSim Multicore Out-of-Order Simulator ***

Warmup Instructions: 50000000
Simulation Instructions: 100000000
Number of CPUs: 1
LLC sets: 2048
LLC ways: 16
Off-chip DRAM Size: 4096 MB Channels: 1 Width: 64-bit Data Rate: 6400 MT/s
CPU 0 runs ./traces/GAP/pr-14.trace.gz
.gz
CPU 0 Bimodal branch predictor
BTB has LRU replacement policy
ITLB has LRU replacement policy
DTLB has LRU replacement policy
STLB has LRU replacement policy
L1I has LRU replacement policy
L1D has LRU replacement policy
L2C has LRU replacement policy
LLC has LRU replacement policy
Heartbeat CPU 0 instructions: 10000000 cycles: 3333430 heartbeat IPC: 2.99991 cumulative IPC: 2.99991 (Simulation time: 0 hr 3 min 21 sec) 
Heartbeat CPU 0 instructions: 20000000 cycles: 9916657 heartbeat IPC: 1.51901 cumulative IPC: 2.01681 (Simulation time: 0 hr 8 min 15 sec) 
Heartbeat CPU 0 instructions: 30000003 cycles: 17020661 heartbeat IPC: 1.40766 cumulative IPC: 1.76256 (Simulation time: 0 hr 13 min 26 sec) 
Heartbeat CPU 0 instructions: 40000000 cycles: 24096620 heartbeat IPC: 1.41324 cumulative IPC: 1.65998 (Simulation time: 0 hr 18 min 37 sec) 
Heartbeat CPU 0 instructions: 50000000 cycles: 31168401 heartbeat IPC: 1.41407 cumulative IPC: 1.60419 (Simulation time: 0 hr 23 min 47 sec) 

Warmup complete CPU 0 instructions: 50000004 cycles: 31168404 (Simulation time: 0 hr 23 min 47 sec) 

Heartbeat CPU 0 instructions: 60000000 cycles: 223576985 heartbeat IPC: 0.0519727 cumulative IPC: 0.0519727 (Simulation time: 0 hr 26 min 43 sec) 
Heartbeat CPU 0 instructions: 70000000 cycles: 415958595 heartbeat IPC: 0.05198 cumulative IPC: 0.0519764 (Simulation time: 0 hr 29 min 40 sec) 
Heartbeat CPU 0 instructions: 80000000 cycles: 608940201 heartbeat IPC: 0.0518184 cumulative IPC: 0.0519236 (Simulation time: 0 hr 32 min 36 sec) 
Heartbeat CPU 0 instructions: 90000000 cycles: 801866649 heartbeat IPC: 0.0518332 cumulative IPC: 0.051901 (Simulation time: 0 hr 35 min 33 sec) 
Heartbeat CPU 0 instructions: 100000000 cycles: 993772965 heartbeat IPC: 0.0521088 cumulative IPC: 0.0519424 (Simulation time: 0 hr 38 min 29 sec) 
Heartbeat CPU 0 instructions: 110000000 cycles: 1186990811 heartbeat IPC: 0.0517551 cumulative IPC: 0.0519111 (Simulation time: 0 hr 41 min 26 sec) 
Heartbeat CPU 0 instructions: 120000000 cycles: 1379273259 heartbeat IPC: 0.0520068 cumulative IPC: 0.0519247 (Simulation time: 0 hr 44 min 22 sec) 
Heartbeat CPU 0 instructions: 130000000 cycles: 1570876228 heartbeat IPC: 0.0521913 cumulative IPC: 0.0519579 (Simulation time: 0 hr 47 min 18 sec) 
Heartbeat CPU 0 instructions: 140000000 cycles: 1763247896 heartbeat IPC: 0.0519827 cumulative IPC: 0.0519607 (Simulation time: 0 hr 50 min 14 sec) 
Heartbeat CPU 0 instructions: 150000001 cycles: 1955723325 heartbeat IPC: 0.0519547 cumulative IPC: 0.0519601 (Simulation time: 0 hr 53 min 11 sec) 
Finished CPU 0 instructions: 100000003 cycles: 1924554981 cumulative IPC: 0.0519601 (Simulation time: 0 hr 53 min 11 sec) 

ChampSim completed all CPUs

Region of Interest Statistics

CPU 0 cumulative IPC: 0.0519601 instructions: 100000003 cycles: 1924554981
ITLB TOTAL     ACCESS:   31735721  HIT:   31735721  MISS:          0  HIT %:        100  MISS %:          0   MPKI: 0
ITLB LOAD TRANSLATION ACCESS:   31735721  HIT:   31735721  MISS:          0  HIT %:        100  MISS %:          0   MPKI: 0
ITLB PREFETCH  REQUESTED:          0  ISSUED:          0  USEFUL:          0  USELESS:          0
ITLB USEFUL LOAD PREFETCHES:          0 PREFETCH ISSUED TO LOWER LEVEL:          0  ACCURACY: -nan
ITLB TIMELY PREFETCHES:          0 LATE PREFETCHES: 0 DROPPED PREFETCHES: 0
ITLB PREFETCHES SAME FILL-ORIGIN LEVEL: 0 DIFFERENT FILL-ORIGIN LEVEL: 0
ITLB AVERAGE MISS LATENCY: -nan cycles
ITLB RQ	ACCESS:   32269441	FORWARD:          0	MERGED:     533720	TO_CACHE:   31735721

DTLB TOTAL     ACCESS:   32004218  HIT:   19779191  MISS:   12225027  HIT %:    61.8018  MISS %:    38.1982   MPKI: 122.25
DTLB LOAD TRANSLATION ACCESS:   32004218  HIT:   19779191  MISS:   12225027  HIT %:    61.8018  MISS %:    38.1982   MPKI: 122.25
DTLB PREFETCH  REQUESTED:          0  ISSUED:          0  USEFUL:          0  USELESS:          0
DTLB USEFUL LOAD PREFETCHES:          0 PREFETCH ISSUED TO LOWER LEVEL:          0  ACCURACY: -nan
DTLB TIMELY PREFETCHES:          0 LATE PREFETCHES: 0 DROPPED PREFETCHES: 0
DTLB PREFETCHES SAME FILL-ORIGIN LEVEL: 0 DIFFERENT FILL-ORIGIN LEVEL: 0
DTLB AVERAGE MISS LATENCY: 9.22203 cycles
DTLB RQ	ACCESS:   32324427	FORWARD:          0	MERGED:     315810	TO_CACHE:   32008617

STLB TOTAL     ACCESS:   30309701  HIT:   30290474  MISS:      19227  HIT %:    99.9366  MISS %:  0.0634351   MPKI: 0.19227
STLB LOAD TRANSLATION ACCESS:   12225026  HIT:   12205799  MISS:      19227  HIT %:    99.8427  MISS %:   0.157276   MPKI: 0.19227
STLB TRANSLATION FROM L1D PREFETCHER ACCESS:   18084675  HIT:   18084675  MISS:          0  HIT %:        100  MISS %:          0   MPKI: 0
STLB PREFETCH  REQUESTED:          0  ISSUED:          0  USEFUL:          0  USELESS:          0
STLB USEFUL LOAD PREFETCHES:          0 PREFETCH ISSUED TO LOWER LEVEL:          0  ACCURACY: -nan
STLB TIMELY PREFETCHES:          0 LATE PREFETCHES: 0 DROPPED PREFETCHES: 0
STLB PREFETCHES SAME FILL-ORIGIN LEVEL: 0 DIFFERENT FILL-ORIGIN LEVEL: 0
STLB AVERAGE MISS LATENCY: 136.041 cycles
STLB RQ	ACCESS:   31795475	FORWARD:          0	MERGED:    1485774	TO_CACHE:   30309701

STLB Hit, L1D data hit: 0
STLB Hit, L2C data hit: 0
STLB Hit, LLC data hit: 0
STLB Hit, LLC data miss: 0
STLB STLB hints to L2: 0
L1D TOTAL     ACCESS:   51705231  HIT:   16721274  MISS:   34983957  HIT %:    32.3396  MISS %:    67.6604   MPKI: 349.84
L1D LOAD      ACCESS:   31069221  HIT:   14039279  MISS:   17029942  HIT %:    45.1871  MISS %:    54.8129   MPKI: 170.299
L1D RFO       ACCESS:    1196330  HIT:    1196330  MISS:          0  HIT %:        100  MISS %:          0   MPKI: 0
L1D PREFETCH  ACCESS:   19439680  HIT:    1485665  MISS:   17954015  HIT %:    7.64244  MISS %:    92.3576   MPKI: 179.54
AGUS PREFETCH L1 MISS: 0
L1D PREFETCH  REQUESTED:   39141141  ISSUED:   39140898  USEFUL:    1532264  USELESS:   16421753
L1D USEFUL LOAD PREFETCHES:    1532264 PREFETCH ISSUED TO LOWER LEVEL:   18078797  ACCURACY: 8.47548
L1D TIMELY PREFETCHES:    1532264 LATE PREFETCHES: 124778 DROPPED PREFETCHES: 0
L1D PREFETCHES SAME FILL-ORIGIN LEVEL: 18078797 DIFFERENT FILL-ORIGIN LEVEL: 0
L1D AVERAGE MISS LATENCY: 96.8334 cycles
L1D RQ	ACCESS:   39374242	FORWARD:          0	MERGED:    8246145	TO_CACHE:   31128097
L1D WQ	ACCESS:    1196330	FORWARD:          0	MERGED:          0	TO_CACHE:    1196330
L1D PQ	ACCESS:   19570449	FORWARD:          0	MERGED:          0	TO_CACHE:   19570449

L1D UNIQUE REGIONS ACCESSED: 0
L1D REGIONS CONFLICTS: 0
L1D Cross Page Prefetch Requests: 0
L1D Same Page Prefetch Requests: 27645047
L1D ROI Sum of L1D PQ occupancy: 254907672
L1D PREFETCHES PUSHED FROM L2C: 0
L1I TOTAL     ACCESS:   32269441  HIT:   32269441  MISS:          0  HIT %:        100  MISS %:          0   MPKI: 0
L1I LOAD      ACCESS:   32269441  HIT:   32269441  MISS:          0  HIT %:        100  MISS %:          0   MPKI: 0
L1I PREFETCH  REQUESTED:          0  ISSUED:          0  USEFUL:          0  USELESS:          0
L1I USEFUL LOAD PREFETCHES:          0 PREFETCH ISSUED TO LOWER LEVEL:          0  ACCURACY: -nan
L1I TIMELY PREFETCHES:          0 LATE PREFETCHES: 0 DROPPED PREFETCHES: 0
L1I PREFETCHES SAME FILL-ORIGIN LEVEL: 0 DIFFERENT FILL-ORIGIN LEVEL: 0
L1I AVERAGE MISS LATENCY: -nan cycles
L1I RQ	ACCESS:   49251169	FORWARD:          0	MERGED:   16981728	TO_CACHE:   32269441

BTB TOTAL     ACCESS:   19088943  HIT:   19088940  MISS:          3  HIT %:        100  MISS %: 1.57159e-05   MPKI: 3e-05
BTB BRANCH_DIRECT_JUMP	ACCESS:          0  HIT:          0  MISS:          0
BTB BRANCH_INDIRECT	ACCESS:          0  HIT:          0  MISS:          0
BTB BRANCH_CONDITIONAL	ACCESS:   19088943  HIT:   19088940  MISS:          3
BTB BRANCH_DIRECT_CALL	ACCESS:          0  HIT:          0  MISS:          0
BTB BRANCH_INDIRECT_CALL	ACCESS:          0  HIT:          0  MISS:          0
BTB BRANCH_RETURN	ACCESS:          0  HIT:          0  MISS:          0
BTB BRANCH_OTHER ACCESS:          0  HIT:          0  MISS:          0

L2C TOTAL     ACCESS:   35059413  HIT:    7542718  MISS:   27516695  HIT %:    21.5141  MISS %:    78.4859   MPKI: 275.167
L2C LOAD      ACCESS:   16905151  HIT:    3930547  MISS:   12974604  HIT %:    23.2506  MISS %:    76.7494   MPKI: 129.746
L2C DATA LOAD MPKI: 129.746
L2C INSTRUCTION LOAD MPKI: 0
L2C PREFETCH  ACCESS:   18078793  HIT:    3541137  MISS:   14537656  HIT %:    19.5872  MISS %:    80.4128   MPKI: 145.377
AGUS PREFETCH L1 MISS: 0
L2C DATA PREFETCH MPKI: 145.377
L2C INSTRUCTION PREFETCH MPKI: 0
L2C WRITEBACK ACCESS:      56237  HIT:      55776  MISS:        461  HIT %:    99.1803  MISS %:   0.819745   MPKI: 0.00461
L2C LOAD TRANSLATION ACCESS:      19232  HIT:      15258  MISS:       3974  HIT %:    79.3365  MISS %:    20.6635   MPKI: 0.03974
L2C PREFETCH  REQUESTED:          0  ISSUED:          0  USEFUL:     612539  USELESS:   13925176
L2C USEFUL LOAD PREFETCHES:     612539 PREFETCH ISSUED TO LOWER LEVEL:   14537660  ACCURACY: 4.21346
L2C TIMELY PREFETCHES:     612539 LATE PREFETCHES: 0 DROPPED PREFETCHES: 0
L2C PREFETCHES SAME FILL-ORIGIN LEVEL: 0 DIFFERENT FILL-ORIGIN LEVEL: 0
L2C AVERAGE MISS LATENCY: 104.018 cycles
L2C RQ	ACCESS:   16924397	FORWARD:          0	MERGED:          0	TO_CACHE:   16924384
L2C WQ	ACCESS:      56237	FORWARD:         13	MERGED:          0	TO_CACHE:      56237
L2C PQ	ACCESS:   18078797	FORWARD:          0	MERGED:          0	TO_CACHE:   18078797

L2C Instructions Evicting Data 0
L2C Translations Evicting Data 3974
L2C Data Evicting Data 27508286
L2C Instructions Evicting Instructions 0
L2C Translations Evicting Instructions 0
L2C Data Evicting Instructions 0
L2C Instructions Evicting Translations 0
L2C Translations Evicting Translations 0
L2C Data Evicting Translations 3974
L2C Dense regions hint from L2: 0
PSCL5 TOTAL     ACCESS:      19227  HIT:      19227  MISS:          0  HIT %:        100  MISS %:          0   MPKI: 0
PSCL5 LOAD TRANSLATION ACCESS:      19227  HIT:      19227  MISS:          0  HIT %:        100  MISS %:          0   MPKI: 0
PSCL5 PREFETCH  REQUESTED:          0  ISSUED:          0  USEFUL:          0  USELESS:          0
PSCL5 USEFUL LOAD PREFETCHES:          0 PREFETCH ISSUED TO LOWER LEVEL:          0  ACCURACY: -nan
PSCL5 TIMELY PREFETCHES:          0 LATE PREFETCHES: 0 DROPPED PREFETCHES: 0
PSCL5 PREFETCHES SAME FILL-ORIGIN LEVEL: 0 DIFFERENT FILL-ORIGIN LEVEL: 0

PSCL4 TOTAL     ACCESS:      19227  HIT:      19227  MISS:          0  HIT %:        100  MISS %:          0   MPKI: 0
PSCL4 LOAD TRANSLATION ACCESS:      19227  HIT:      19227  MISS:          0  HIT %:        100  MISS %:          0   MPKI: 0
PSCL4 PREFETCH  REQUESTED:          0  ISSUED:          0  USEFUL:          0  USELESS:          0
PSCL4 USEFUL LOAD PREFETCHES:          0 PREFETCH ISSUED TO LOWER LEVEL:          0  ACCURACY: -nan
PSCL4 TIMELY PREFETCHES:          0 LATE PREFETCHES: 0 DROPPED PREFETCHES: 0
PSCL4 PREFETCHES SAME FILL-ORIGIN LEVEL: 0 DIFFERENT FILL-ORIGIN LEVEL: 0

PSCL3 TOTAL     ACCESS:      19227  HIT:      19227  MISS:          0  HIT %:        100  MISS %:          0   MPKI: 0
PSCL3 LOAD TRANSLATION ACCESS:      19227  HIT:      19227  MISS:          0  HIT %:        100  MISS %:          0   MPKI: 0
PSCL3 PREFETCH  REQUESTED:          0  ISSUED:          0  USEFUL:          0  USELESS:          0
PSCL3 USEFUL LOAD PREFETCHES:          0 PREFETCH ISSUED TO LOWER LEVEL:          0  ACCURACY: -nan
PSCL3 TIMELY PREFETCHES:          0 LATE PREFETCHES: 0 DROPPED PREFETCHES: 0
PSCL3 PREFETCHES SAME FILL-ORIGIN LEVEL: 0 DIFFERENT FILL-ORIGIN LEVEL: 0

PSCL2 TOTAL     ACCESS:      19227  HIT:      19188  MISS:         39  HIT %:    99.7972  MISS %:    0.20284   MPKI: 0.00039
PSCL2 LOAD TRANSLATION ACCESS:      19227  HIT:      19188  MISS:         39  HIT %:    99.7972  MISS %:    0.20284   MPKI: 0.00039
PSCL2 PREFETCH  REQUESTED:          0  ISSUED:          0  USEFUL:          0  USELESS:          0
PSCL2 USEFUL LOAD PREFETCHES:          0 PREFETCH ISSUED TO LOWER LEVEL:          0  ACCURACY: -nan
PSCL2 TIMELY PREFETCHES:          0 LATE PREFETCHES: 0 DROPPED PREFETCHES: 0
PSCL2 PREFETCHES SAME FILL-ORIGIN LEVEL: 0 DIFFERENT FILL-ORIGIN LEVEL: 0

LLC TOTAL     ACCESS:   27555493  HIT:   14372253  MISS:   13183240  HIT %:    52.1575  MISS %:    47.8425   MPKI: 131.832
LLC LOAD      ACCESS:   12974604  HIT:    7245530  MISS:    5729074  HIT %:    55.8439  MISS %:    44.1561   MPKI: 57.2907
LLC PREFETCH  ACCESS:   14537657  HIT:    7086643  MISS:    7451014  HIT %:    48.7468  MISS %:    51.2532   MPKI: 74.5101
AGUS PREFETCH L1 MISS: 0
LLC WRITEBACK ACCESS:      39258  HIT:      39041  MISS:        217  HIT %:    99.4472  MISS %:   0.552754   MPKI: 0.00217
LLC LOAD TRANSLATION ACCESS:       3974  HIT:       1039  MISS:       2935  HIT %:    26.1449  MISS %:    73.8551   MPKI: 0.02935
LLC PREFETCH  REQUESTED:          0  ISSUED:          0  USEFUL:    1095806  USELESS:    6355417
LLC USEFUL LOAD PREFETCHES:    1095806 PREFETCH ISSUED TO LOWER LEVEL:    7451017  ACCURACY: 14.7068
LLC TIMELY PREFETCHES:    1095806 LATE PREFETCHES: 0 DROPPED PREFETCHES: 0
LLC PREFETCHES SAME FILL-ORIGIN LEVEL: 0 DIFFERENT FILL-ORIGIN LEVEL: 0
LLC AVERAGE MISS LATENCY: 154.435 cycles
LLC RQ	ACCESS:   12978579	FORWARD:          0	MERGED:          0	TO_CACHE:   12978579
LLC WQ	ACCESS:      39258	FORWARD:          0	MERGED:          0	TO_CACHE:      39258
LLC PQ	ACCESS:   14537660	FORWARD:          0	MERGED:          0	TO_CACHE:   14537660

LLC Dense regions hint to LLC: 0

RAW hits: 0
Loads Generated: 39374243
Loads sent to L1D: 39374242
Stores Generated: 1196330
Stores sent to L1D: 1196330
Major fault: 0 Minor fault: 28425
Allocated PAGES: 28425

stream: 
stream:times selected: 26409966
stream:pref_filled: 23146390
stream:pref_useful: 703181
stream:pref_late: 151784
stream:misses: 5918161
stream:misses_by_poll: 0

CS: 
CS:times selected: 2117169
CS:pref_filled: 1707354
CS:pref_useful: 1587669
CS:pref_late: 3742
CS:misses: 156950
CS:misses_by_poll: 1012

CPLX: 
CPLX:times selected: 24069546
CPLX:pref_filled: 444132
CPLX:pref_useful: 13188
CPLX:pref_late: 5798
CPLX:misses: 17536929
CPLX:misses_by_poll: 104

NL_L1: 
NL:times selected: 59882
NL:pref_filled: 58012
NL:pref_useful: 1285
NL:pref_late: 145
NL:misses: 58345
NL:misses_by_poll: 0

total selections: 52656563
total_filled: 17954015
total_useful: 1532264
total_late: 163306
total_polluted: 1116
total_misses_after_warmup: 17088819
conflicts: 197

test: 15088600

DRAM Statistics
 CHANNEL 0
 RQ ROW_BUFFER_HIT:    2489795  ROW_BUFFER_MISS:   10693228
 DBUS_CONGESTED:        178
 WQ ROW_BUFFER_HIT:      11915  ROW_BUFFER_MISS:      25748  FULL:          0

 AVG_CONGESTED_CYCLE: 5
 All warmup complete: 2
Channel 0 Bank busy for read cycles: 0
Channel 0 Bank busy for write cycles: 0
Channel 0
Rank 0
0banks busy for read cycles: 839641828
0banks busy for write cycles: 34052
1banks busy for read cycles: 520804666
1banks busy for write cycles: 7990942
2banks busy for read cycles: 473821404
2banks busy for write cycles: 703422
3banks busy for read cycles: 68397918
3banks busy for write cycles: 71953
4banks busy for read cycles: 10967576
4banks busy for write cycles: 8467
5banks busy for read cycles: 1739389
5banks busy for write cycles: 2172
6banks busy for read cycles: 327835
6banks busy for write cycles: 462
7banks busy for read cycles: 41935
7banks busy for write cycles: 0
8banks busy for read cycles: 961
8banks busy for write cycles: 0

CPU 0 Branch Prediction Accuracy: 96.3239% MPKI: 7.01722 Average ROB Occupancy at Mispredict: 115.702
Branch types
NOT_BRANCH: 80910983 80.911%
BRANCH_DIRECT_JUMP: 0 0%
BRANCH_INDIRECT: 0 0%
BRANCH_CONDITIONAL: 19088945 19.0889%
BRANCH_DIRECT_CALL: 0 0%
BRANCH_INDIRECT_CALL: 0 0%
BRANCH_RETURN: 0 0%
BRANCH_OTHER: 0 0%

DRAM PAGES: 1048576
Allocated PAGES: 28425
