
*** ChampSim Multicore Out-of-Order Simulator ***

Warmup Instructions: 50000000
Simulation Instructions: 100000000
Number of CPUs: 1
LLC sets: 2048
LLC ways: 16
Off-chip DRAM Size: 4096 MB Channels: 1 Width: 64-bit Data Rate: 6400 MT/s
CPU 0 runs ./traces/GAP/pr-10.trace.gz
.gz
CPU 0 Bimodal branch predictor
BTB has LRU replacement policy
ITLB has LRU replacement policy
DTLB has LRU replacement policy
STLB has LRU replacement policy
L1I has LRU replacement policy
L1D has LRU replacement policy
L2C has LRU replacement policy
LLC has LRU replacement policy
Heartbeat CPU 0 instructions: 10000002 cycles: 3333434 heartbeat IPC: 2.99991 cumulative IPC: 2.99991 (Simulation time: 0 hr 0 min 18 sec) 
Heartbeat CPU 0 instructions: 20000000 cycles: 9681745 heartbeat IPC: 1.57522 cumulative IPC: 2.06574 (Simulation time: 0 hr 0 min 52 sec) 
Heartbeat CPU 0 instructions: 30000003 cycles: 16562586 heartbeat IPC: 1.45331 cumulative IPC: 1.81131 (Simulation time: 0 hr 1 min 29 sec) 
Heartbeat CPU 0 instructions: 40000000 cycles: 23432430 heartbeat IPC: 1.45564 cumulative IPC: 1.70704 (Simulation time: 0 hr 2 min 6 sec) 
Heartbeat CPU 0 instructions: 50000000 cycles: 30286295 heartbeat IPC: 1.45903 cumulative IPC: 1.65091 (Simulation time: 0 hr 2 min 43 sec) 

Warmup complete CPU 0 instructions: 50000002 cycles: 30286296 (Simulation time: 0 hr 2 min 43 sec) 

Heartbeat CPU 0 instructions: 60000000 cycles: 219698060 heartbeat IPC: 0.052795 cumulative IPC: 0.052795 (Simulation time: 0 hr 5 min 25 sec) 
Heartbeat CPU 0 instructions: 70000000 cycles: 409045760 heartbeat IPC: 0.0528129 cumulative IPC: 0.052804 (Simulation time: 0 hr 8 min 8 sec) 
Heartbeat CPU 0 instructions: 80000000 cycles: 598136478 heartbeat IPC: 0.0528847 cumulative IPC: 0.0528308 (Simulation time: 0 hr 10 min 50 sec) 
Heartbeat CPU 0 instructions: 90000000 cycles: 786950224 heartbeat IPC: 0.0529622 cumulative IPC: 0.0528636 (Simulation time: 0 hr 13 min 31 sec) 
Heartbeat CPU 0 instructions: 100000000 cycles: 976977239 heartbeat IPC: 0.0526241 cumulative IPC: 0.0528155 (Simulation time: 0 hr 16 min 14 sec) 
Heartbeat CPU 0 instructions: 110000002 cycles: 1165464480 heartbeat IPC: 0.053054 cumulative IPC: 0.0528551 (Simulation time: 0 hr 18 min 56 sec) 
Heartbeat CPU 0 instructions: 120000000 cycles: 1354470631 heartbeat IPC: 0.0529083 cumulative IPC: 0.0528627 (Simulation time: 0 hr 21 min 37 sec) 
Heartbeat CPU 0 instructions: 130000001 cycles: 1544318235 heartbeat IPC: 0.0526738 cumulative IPC: 0.052839 (Simulation time: 0 hr 24 min 20 sec) 
Heartbeat CPU 0 instructions: 140000000 cycles: 1733101679 heartbeat IPC: 0.0529707 cumulative IPC: 0.0528536 (Simulation time: 0 hr 27 min 2 sec) 
Heartbeat CPU 0 instructions: 150000000 cycles: 1922475589 heartbeat IPC: 0.0528056 cumulative IPC: 0.0528488 (Simulation time: 0 hr 29 min 44 sec) 
Finished CPU 0 instructions: 100000003 cycles: 1892189330 cumulative IPC: 0.0528488 (Simulation time: 0 hr 29 min 44 sec) 

ChampSim completed all CPUs

Region of Interest Statistics

CPU 0 cumulative IPC: 0.0528488 instructions: 100000003 cycles: 1892189330
ITLB TOTAL     ACCESS:   31664161  HIT:   31664161  MISS:          0  HIT %:        100  MISS %:          0   MPKI: 0
ITLB LOAD TRANSLATION ACCESS:   31664161  HIT:   31664161  MISS:          0  HIT %:        100  MISS %:          0   MPKI: 0
ITLB PREFETCH  REQUESTED:          0  ISSUED:          0  USEFUL:          0  USELESS:          0
ITLB USEFUL LOAD PREFETCHES:          0 PREFETCH ISSUED TO LOWER LEVEL:          0  ACCURACY: -nan
ITLB TIMELY PREFETCHES:          0 LATE PREFETCHES: 0 DROPPED PREFETCHES: 0
ITLB PREFETCHES SAME FILL-ORIGIN LEVEL: 0 DIFFERENT FILL-ORIGIN LEVEL: 0
ITLB AVERAGE MISS LATENCY: -nan cycles
ITLB RQ	ACCESS:   32201091	FORWARD:          0	MERGED:     536930	TO_CACHE:   31664161

DTLB TOTAL     ACCESS:   31983246  HIT:   19752347  MISS:   12230899  HIT %:    61.7584  MISS %:    38.2416   MPKI: 122.309
DTLB LOAD TRANSLATION ACCESS:   31983246  HIT:   19752347  MISS:   12230899  HIT %:    61.7584  MISS %:    38.2416   MPKI: 122.309
DTLB PREFETCH  REQUESTED:          0  ISSUED:          0  USEFUL:          0  USELESS:          0
DTLB USEFUL LOAD PREFETCHES:          0 PREFETCH ISSUED TO LOWER LEVEL:          0  ACCURACY: -nan
DTLB TIMELY PREFETCHES:          0 LATE PREFETCHES: 0 DROPPED PREFETCHES: 0
DTLB PREFETCHES SAME FILL-ORIGIN LEVEL: 0 DIFFERENT FILL-ORIGIN LEVEL: 0
DTLB AVERAGE MISS LATENCY: 9.21482 cycles
DTLB RQ	ACCESS:   32304486	FORWARD:          0	MERGED:     316949	TO_CACHE:   31987537

STLB TOTAL     ACCESS:   12230899  HIT:   12211675  MISS:      19224  HIT %:    99.8428  MISS %:   0.157176   MPKI: 0.19224
STLB LOAD TRANSLATION ACCESS:   12230899  HIT:   12211675  MISS:      19224  HIT %:    99.8428  MISS %:   0.157176   MPKI: 0.19224
STLB PREFETCH  REQUESTED:          0  ISSUED:          0  USEFUL:          0  USELESS:          0
STLB USEFUL LOAD PREFETCHES:          0 PREFETCH ISSUED TO LOWER LEVEL:          0  ACCURACY: -nan
STLB TIMELY PREFETCHES:          0 LATE PREFETCHES: 0 DROPPED PREFETCHES: 0
STLB PREFETCHES SAME FILL-ORIGIN LEVEL: 0 DIFFERENT FILL-ORIGIN LEVEL: 0
STLB AVERAGE MISS LATENCY: 130.753 cycles
STLB RQ	ACCESS:   12230899	FORWARD:          0	MERGED:          0	TO_CACHE:   12230899

STLB Hit, L1D data hit: 0
STLB Hit, L2C data hit: 0
STLB Hit, LLC data hit: 0
STLB Hit, LLC data miss: 0
STLB STLB hints to L2: 0
L1D TOTAL     ACCESS:   30228790  HIT:   12061422  MISS:   18167368  HIT %:    39.9004  MISS %:    60.0996   MPKI: 181.674
L1D LOAD      ACCESS:   29025982  HIT:   10858614  MISS:   18167368  HIT %:      37.41  MISS %:      62.59   MPKI: 181.674
L1D RFO       ACCESS:    1202808  HIT:    1202808  MISS:          0  HIT %:        100  MISS %:          0   MPKI: 0
L1D PREFETCH  REQUESTED:          0  ISSUED:          0  USEFUL:          0  USELESS:          0
L1D USEFUL LOAD PREFETCHES:          0 PREFETCH ISSUED TO LOWER LEVEL:          0  ACCURACY: -nan
L1D TIMELY PREFETCHES:          0 LATE PREFETCHES: 0 DROPPED PREFETCHES: 0
L1D PREFETCHES SAME FILL-ORIGIN LEVEL: 0 DIFFERENT FILL-ORIGIN LEVEL: 0
L1D AVERAGE MISS LATENCY: 96.3251 cycles
L1D RQ	ACCESS:   39370675	FORWARD:          0	MERGED:    8268997	TO_CACHE:   31101678
L1D WQ	ACCESS:    1202808	FORWARD:          0	MERGED:          0	TO_CACHE:    1202808

L1D UNIQUE REGIONS ACCESSED: 0
L1D REGIONS CONFLICTS: 0
L1D Cross Page Prefetch Requests: 0
L1D Same Page Prefetch Requests: 0
L1D ROI Sum of L1D PQ occupancy: 0
L1D PREFETCHES PUSHED FROM L2C: 0
L1I TOTAL     ACCESS:   32201091  HIT:   32201091  MISS:          0  HIT %:        100  MISS %:          0   MPKI: 0
L1I LOAD      ACCESS:   32201091  HIT:   32201091  MISS:          0  HIT %:        100  MISS %:          0   MPKI: 0
L1I PREFETCH  REQUESTED:          0  ISSUED:          0  USEFUL:          0  USELESS:          0
L1I USEFUL LOAD PREFETCHES:          0 PREFETCH ISSUED TO LOWER LEVEL:          0  ACCURACY: -nan
L1I TIMELY PREFETCHES:          0 LATE PREFETCHES: 0 DROPPED PREFETCHES: 0
L1I PREFETCHES SAME FILL-ORIGIN LEVEL: 0 DIFFERENT FILL-ORIGIN LEVEL: 0
L1I AVERAGE MISS LATENCY: -nan cycles
L1I RQ	ACCESS:   49170925	FORWARD:          0	MERGED:   16969834	TO_CACHE:   32201091

BTB TOTAL     ACCESS:   19083929  HIT:   19083926  MISS:          3  HIT %:        100  MISS %:  1.572e-05   MPKI: 3e-05
BTB BRANCH_DIRECT_JUMP	ACCESS:          0  HIT:          0  MISS:          0
BTB BRANCH_INDIRECT	ACCESS:          0  HIT:          0  MISS:          0
BTB BRANCH_CONDITIONAL	ACCESS:   19083929  HIT:   19083926  MISS:          3
BTB BRANCH_DIRECT_CALL	ACCESS:          0  HIT:          0  MISS:          0
BTB BRANCH_INDIRECT_CALL	ACCESS:          0  HIT:          0  MISS:          0
BTB BRANCH_RETURN	ACCESS:          0  HIT:          0  MISS:          0
BTB BRANCH_OTHER ACCESS:          0  HIT:          0  MISS:          0

L2C TOTAL     ACCESS:   18231740  HIT:    4875037  MISS:   13356703  HIT %:    26.7393  MISS %:    73.2607   MPKI: 133.567
L2C LOAD      ACCESS:   18167368  HIT:    4814284  MISS:   13353084  HIT %:    26.4996  MISS %:    73.5004   MPKI: 133.531
L2C DATA LOAD MPKI: 133.531
L2C INSTRUCTION LOAD MPKI: 0
L2C WRITEBACK ACCESS:      45143  HIT:      45120  MISS:         23  HIT %:    99.9491  MISS %:  0.0509492   MPKI: 0.00023
L2C LOAD TRANSLATION ACCESS:      19229  HIT:      15633  MISS:       3596  HIT %:    81.2991  MISS %:    18.7009   MPKI: 0.03596
L2C PREFETCH  REQUESTED:          0  ISSUED:          0  USEFUL:          0  USELESS:          0
L2C USEFUL LOAD PREFETCHES:          0 PREFETCH ISSUED TO LOWER LEVEL:          0  ACCURACY: -nan
L2C TIMELY PREFETCHES:          0 LATE PREFETCHES: 0 DROPPED PREFETCHES: 0
L2C PREFETCHES SAME FILL-ORIGIN LEVEL: 0 DIFFERENT FILL-ORIGIN LEVEL: 0
L2C AVERAGE MISS LATENCY: 110.628 cycles
L2C RQ	ACCESS:   18186596	FORWARD:          0	MERGED:          0	TO_CACHE:   18186596
L2C WQ	ACCESS:      45143	FORWARD:          0	MERGED:          0	TO_CACHE:      45143

L2C Instructions Evicting Data 0
L2C Translations Evicting Data 3596
L2C Data Evicting Data 13349490
L2C Instructions Evicting Instructions 0
L2C Translations Evicting Instructions 0
L2C Data Evicting Instructions 0
L2C Instructions Evicting Translations 0
L2C Translations Evicting Translations 0
L2C Data Evicting Translations 3594
L2C Dense regions hint from L2: 0
PSCL5 TOTAL     ACCESS:      19224  HIT:      19224  MISS:          0  HIT %:        100  MISS %:          0   MPKI: 0
PSCL5 LOAD TRANSLATION ACCESS:      19224  HIT:      19224  MISS:          0  HIT %:        100  MISS %:          0   MPKI: 0
PSCL5 PREFETCH  REQUESTED:          0  ISSUED:          0  USEFUL:          0  USELESS:          0
PSCL5 USEFUL LOAD PREFETCHES:          0 PREFETCH ISSUED TO LOWER LEVEL:          0  ACCURACY: -nan
PSCL5 TIMELY PREFETCHES:          0 LATE PREFETCHES: 0 DROPPED PREFETCHES: 0
PSCL5 PREFETCHES SAME FILL-ORIGIN LEVEL: 0 DIFFERENT FILL-ORIGIN LEVEL: 0

PSCL4 TOTAL     ACCESS:      19224  HIT:      19224  MISS:          0  HIT %:        100  MISS %:          0   MPKI: 0
PSCL4 LOAD TRANSLATION ACCESS:      19224  HIT:      19224  MISS:          0  HIT %:        100  MISS %:          0   MPKI: 0
PSCL4 PREFETCH  REQUESTED:          0  ISSUED:          0  USEFUL:          0  USELESS:          0
PSCL4 USEFUL LOAD PREFETCHES:          0 PREFETCH ISSUED TO LOWER LEVEL:          0  ACCURACY: -nan
PSCL4 TIMELY PREFETCHES:          0 LATE PREFETCHES: 0 DROPPED PREFETCHES: 0
PSCL4 PREFETCHES SAME FILL-ORIGIN LEVEL: 0 DIFFERENT FILL-ORIGIN LEVEL: 0

PSCL3 TOTAL     ACCESS:      19224  HIT:      19224  MISS:          0  HIT %:        100  MISS %:          0   MPKI: 0
PSCL3 LOAD TRANSLATION ACCESS:      19224  HIT:      19224  MISS:          0  HIT %:        100  MISS %:          0   MPKI: 0
PSCL3 PREFETCH  REQUESTED:          0  ISSUED:          0  USEFUL:          0  USELESS:          0
PSCL3 USEFUL LOAD PREFETCHES:          0 PREFETCH ISSUED TO LOWER LEVEL:          0  ACCURACY: -nan
PSCL3 TIMELY PREFETCHES:          0 LATE PREFETCHES: 0 DROPPED PREFETCHES: 0
PSCL3 PREFETCHES SAME FILL-ORIGIN LEVEL: 0 DIFFERENT FILL-ORIGIN LEVEL: 0

PSCL2 TOTAL     ACCESS:      19224  HIT:      19185  MISS:         39  HIT %:    99.7971  MISS %:   0.202871   MPKI: 0.00039
PSCL2 LOAD TRANSLATION ACCESS:      19224  HIT:      19185  MISS:         39  HIT %:    99.7971  MISS %:   0.202871   MPKI: 0.00039
PSCL2 PREFETCH  REQUESTED:          0  ISSUED:          0  USEFUL:          0  USELESS:          0
PSCL2 USEFUL LOAD PREFETCHES:          0 PREFETCH ISSUED TO LOWER LEVEL:          0  ACCURACY: -nan
PSCL2 TIMELY PREFETCHES:          0 LATE PREFETCHES: 0 DROPPED PREFETCHES: 0
PSCL2 PREFETCHES SAME FILL-ORIGIN LEVEL: 0 DIFFERENT FILL-ORIGIN LEVEL: 0

LLC TOTAL     ACCESS:   13394495  HIT:    6682943  MISS:    6711552  HIT %:    49.8932  MISS %:    50.1068   MPKI: 67.1155
LLC LOAD      ACCESS:   13353084  HIT:    6644032  MISS:    6709052  HIT %:    49.7565  MISS %:    50.2435   MPKI: 67.0905
LLC WRITEBACK ACCESS:      37815  HIT:      37768  MISS:         47  HIT %:    99.8757  MISS %:   0.124289   MPKI: 0.00047
LLC LOAD TRANSLATION ACCESS:       3596  HIT:       1143  MISS:       2453  HIT %:    31.7853  MISS %:    68.2147   MPKI: 0.02453
LLC PREFETCH  REQUESTED:          0  ISSUED:          0  USEFUL:          0  USELESS:          0
LLC USEFUL LOAD PREFETCHES:          0 PREFETCH ISSUED TO LOWER LEVEL:          0  ACCURACY: -nan
LLC TIMELY PREFETCHES:          0 LATE PREFETCHES: 0 DROPPED PREFETCHES: 0
LLC PREFETCHES SAME FILL-ORIGIN LEVEL: 0 DIFFERENT FILL-ORIGIN LEVEL: 0
LLC AVERAGE MISS LATENCY: 160.395 cycles
LLC RQ	ACCESS:   13356679	FORWARD:          0	MERGED:          0	TO_CACHE:   13356679
LLC WQ	ACCESS:      37815	FORWARD:          0	MERGED:          0	TO_CACHE:      37815

LLC Dense regions hint to LLC: 0

RAW hits: 0
Loads Generated: 39370676
Loads sent to L1D: 39370675
Stores Generated: 1202808
Stores sent to L1D: 1202808
Major fault: 0 Minor fault: 28423
Allocated PAGES: 28423

DRAM Statistics
 CHANNEL 0
 RQ ROW_BUFFER_HIT:     751891  ROW_BUFFER_MISS:    5959614
 DBUS_CONGESTED:          8
 WQ ROW_BUFFER_HIT:       9785  ROW_BUFFER_MISS:      27847  FULL:          0

 AVG_CONGESTED_CYCLE: 4
 All warmup complete: 2
Channel 0 Bank busy for read cycles: 0
Channel 0 Bank busy for write cycles: 0
Channel 0
Rank 0
0banks busy for read cycles: 1038901756
0banks busy for write cycles: 36433
1banks busy for read cycles: 769629011
1banks busy for write cycles: 7526023
2banks busy for read cycles: 65978918
2banks busy for write cycles: 191058
3banks busy for read cycles: 9734981
3banks busy for write cycles: 5928
4banks busy for read cycles: 180932
4banks busy for write cycles: 31
5banks busy for read cycles: 4260
5banks busy for write cycles: 0
6banks busy for read cycles: 0
6banks busy for write cycles: 0
7banks busy for read cycles: 0
7banks busy for write cycles: 0
8banks busy for read cycles: 0
8banks busy for write cycles: 0

CPU 0 Branch Prediction Accuracy: 96.2997% MPKI: 7.06157 Average ROB Occupancy at Mispredict: 112.96
Branch types
NOT_BRANCH: 80916077 80.9161%
BRANCH_DIRECT_JUMP: 0 0%
BRANCH_INDIRECT: 0 0%
BRANCH_CONDITIONAL: 19083930 19.0839%
BRANCH_DIRECT_CALL: 0 0%
BRANCH_INDIRECT_CALL: 0 0%
BRANCH_RETURN: 0 0%
BRANCH_OTHER: 0 0%

DRAM PAGES: 1048576
Allocated PAGES: 28423
