
*** ChampSim Multicore Out-of-Order Simulator ***

Warmup Instructions: 50000000
Simulation Instructions: 100000000
Number of CPUs: 1
LLC sets: 2048
LLC ways: 16
Off-chip DRAM Size: 4096 MB Channels: 1 Width: 64-bit Data Rate: 6400 MT/s
CPU 0 runs ./traces/GAP/pr-3.trace.gz
.gz
CPU 0 Bimodal branch predictor
BTB has LRU replacement policy
ITLB has LRU replacement policy
DTLB has LRU replacement policy
STLB has LRU replacement policy
L1I has LRU replacement policy
L1D has LRU replacement policy
Ideal ISB Prefetching
L2C has LRU replacement policy
LLC has LRU replacement policy
Heartbeat CPU 0 instructions: 10000002 cycles: 3333433 heartbeat IPC: 2.99991 cumulative IPC: 2.99991 (Simulation time: 0 hr 0 min 18 sec) 
Heartbeat CPU 0 instructions: 20000000 cycles: 9799212 heartbeat IPC: 1.5466 cumulative IPC: 2.04098 (Simulation time: 0 hr 4 min 39 sec) 
Heartbeat CPU 0 instructions: 30000001 cycles: 16760136 heartbeat IPC: 1.43659 cumulative IPC: 1.78996 (Simulation time: 0 hr 10 min 11 sec) 
Heartbeat CPU 0 instructions: 40000000 cycles: 23746080 heartbeat IPC: 1.43145 cumulative IPC: 1.68449 (Simulation time: 0 hr 15 min 44 sec) 
Heartbeat CPU 0 instructions: 50000000 cycles: 30739501 heartbeat IPC: 1.42992 cumulative IPC: 1.62657 (Simulation time: 0 hr 21 min 28 sec) 

Warmup complete CPU 0 instructions: 50000001 cycles: 30739502 (Simulation time: 0 hr 21 min 28 sec) 

Heartbeat CPU 0 instructions: 60000000 cycles: 223570951 heartbeat IPC: 0.0518588 cumulative IPC: 0.0518588 (Simulation time: 0 hr 29 min 24 sec) 
Heartbeat CPU 0 instructions: 70000001 cycles: 416818263 heartbeat IPC: 0.0517472 cumulative IPC: 0.0518029 (Simulation time: 0 hr 56 min 13 sec) 
Heartbeat CPU 0 instructions: 80000000 cycles: 610286273 heartbeat IPC: 0.0516881 cumulative IPC: 0.0517646 (Simulation time: 1 hr 8 min 18 sec) 
Heartbeat CPU 0 instructions: 90000000 cycles: 803460828 heartbeat IPC: 0.0517667 cumulative IPC: 0.0517651 (Simulation time: 1 hr 21 min 40 sec) 
Heartbeat CPU 0 instructions: 100000000 cycles: 997498506 heartbeat IPC: 0.0515364 cumulative IPC: 0.0517192 (Simulation time: 2 hr 20 min 41 sec) 
Heartbeat CPU 0 instructions: 110000003 cycles: 1190974333 heartbeat IPC: 0.0516861 cumulative IPC: 0.0517137 (Simulation time: 2 hr 33 min 37 sec) 
Heartbeat CPU 0 instructions: 120000000 cycles: 1385597775 heartbeat IPC: 0.0513813 cumulative IPC: 0.0516659 (Simulation time: 2 hr 46 min 19 sec) 
Heartbeat CPU 0 instructions: 130000001 cycles: 1578692384 heartbeat IPC: 0.0517881 cumulative IPC: 0.0516812 (Simulation time: 2 hr 58 min 39 sec) 
Heartbeat CPU 0 instructions: 140000000 cycles: 1772518230 heartbeat IPC: 0.0515927 cumulative IPC: 0.0516713 (Simulation time: 4 hr 31 min 3 sec) 
Heartbeat CPU 0 instructions: 150000000 cycles: 1965733435 heartbeat IPC: 0.0517558 cumulative IPC: 0.0516797 (Simulation time: 4 hr 39 min 21 sec) 
Finished CPU 0 instructions: 100000000 cycles: 1934993934 cumulative IPC: 0.0516797 (Simulation time: 4 hr 39 min 21 sec) 

ChampSim completed all CPUs

Region of Interest Statistics

CPU 0 cumulative IPC: 0.0516797 instructions: 100000000 cycles: 1934993934
ITLB TOTAL     ACCESS:   31809683  HIT:   31809683  MISS:          0  HIT %:        100  MISS %:          0   MPKI: 0
ITLB LOAD TRANSLATION ACCESS:   31809683  HIT:   31809683  MISS:          0  HIT %:        100  MISS %:          0   MPKI: 0
ITLB PREFETCH  REQUESTED:          0  ISSUED:          0  USEFUL:          0  USELESS:          0
ITLB USEFUL LOAD PREFETCHES:          0 PREFETCH ISSUED TO LOWER LEVEL:          0  ACCURACY: -nan
ITLB TIMELY PREFETCHES:          0 LATE PREFETCHES: 0 DROPPED PREFETCHES: 0
ITLB PREFETCHES SAME FILL-ORIGIN LEVEL: 0 DIFFERENT FILL-ORIGIN LEVEL: 0
ITLB AVERAGE MISS LATENCY: -nan cycles
ITLB RQ	ACCESS:   32338672	FORWARD:          0	MERGED:     528990	TO_CACHE:   31809682

DTLB TOTAL     ACCESS:   32001518  HIT:   19941116  MISS:   12060402  HIT %:     62.313  MISS %:     37.687   MPKI: 120.604
DTLB LOAD TRANSLATION ACCESS:   32001518  HIT:   19941116  MISS:   12060402  HIT %:     62.313  MISS %:     37.687   MPKI: 120.604
DTLB PREFETCH  REQUESTED:          0  ISSUED:          0  USEFUL:          0  USELESS:          0
DTLB USEFUL LOAD PREFETCHES:          0 PREFETCH ISSUED TO LOWER LEVEL:          0  ACCURACY: -nan
DTLB TIMELY PREFETCHES:          0 LATE PREFETCHES: 0 DROPPED PREFETCHES: 0
DTLB PREFETCHES SAME FILL-ORIGIN LEVEL: 0 DIFFERENT FILL-ORIGIN LEVEL: 0
DTLB AVERAGE MISS LATENCY: 9.22058 cycles
DTLB RQ	ACCESS:   32319451	FORWARD:          0	MERGED:     313566	TO_CACHE:   32005885

STLB TOTAL     ACCESS:   12060402  HIT:   12041174  MISS:      19228  HIT %:    99.8406  MISS %:   0.159431   MPKI: 0.19228
STLB LOAD TRANSLATION ACCESS:   12060402  HIT:   12041174  MISS:      19228  HIT %:    99.8406  MISS %:   0.159431   MPKI: 0.19228
STLB PREFETCH  REQUESTED:          0  ISSUED:          0  USEFUL:          0  USELESS:          0
STLB USEFUL LOAD PREFETCHES:          0 PREFETCH ISSUED TO LOWER LEVEL:          0  ACCURACY: -nan
STLB TIMELY PREFETCHES:          0 LATE PREFETCHES: 0 DROPPED PREFETCHES: 0
STLB PREFETCHES SAME FILL-ORIGIN LEVEL: 0 DIFFERENT FILL-ORIGIN LEVEL: 0
STLB AVERAGE MISS LATENCY: 132.993 cycles
STLB RQ	ACCESS:   12060402	FORWARD:          0	MERGED:          0	TO_CACHE:   12060402

STLB Hit, L1D data hit: 0
STLB Hit, L2C data hit: 0
STLB Hit, LLC data hit: 0
STLB Hit, LLC data miss: 0
STLB STLB hints to L2: 0
L1D TOTAL     ACCESS:   30276222  HIT:   12094031  MISS:   18182191  HIT %:    39.9456  MISS %:    60.0544   MPKI: 181.822
L1D LOAD      ACCESS:   29089316  HIT:   10907125  MISS:   18182191  HIT %:    37.4953  MISS %:    62.5047   MPKI: 181.822
L1D RFO       ACCESS:    1186906  HIT:    1186906  MISS:          0  HIT %:        100  MISS %:          0   MPKI: 0
L1D PREFETCH  REQUESTED:          0  ISSUED:          0  USEFUL:          0  USELESS:          0
L1D USEFUL LOAD PREFETCHES:          0 PREFETCH ISSUED TO LOWER LEVEL:          0  ACCURACY: -nan
L1D TIMELY PREFETCHES:          0 LATE PREFETCHES: 0 DROPPED PREFETCHES: 0
L1D PREFETCHES SAME FILL-ORIGIN LEVEL: 0 DIFFERENT FILL-ORIGIN LEVEL: 0
L1D AVERAGE MISS LATENCY: 97.806 cycles
L1D RQ	ACCESS:   39379034	FORWARD:          0	MERGED:    8246489	TO_CACHE:   31132545
L1D WQ	ACCESS:    1186906	FORWARD:          0	MERGED:          0	TO_CACHE:    1186906

L1D UNIQUE REGIONS ACCESSED: 0
L1D REGIONS CONFLICTS: 0
L1D Cross Page Prefetch Requests: 0
L1D Same Page Prefetch Requests: 0
L1D ROI Sum of L1D PQ occupancy: 0
L1D PREFETCHES PUSHED FROM L2C: 0
L1I TOTAL     ACCESS:   32338673  HIT:   32338673  MISS:          0  HIT %:        100  MISS %:          0   MPKI: 0
L1I LOAD      ACCESS:   32338673  HIT:   32338673  MISS:          0  HIT %:        100  MISS %:          0   MPKI: 0
L1I PREFETCH  REQUESTED:          0  ISSUED:          0  USEFUL:          0  USELESS:          0
L1I USEFUL LOAD PREFETCHES:          0 PREFETCH ISSUED TO LOWER LEVEL:          0  ACCURACY: -nan
L1I TIMELY PREFETCHES:          0 LATE PREFETCHES: 0 DROPPED PREFETCHES: 0
L1I PREFETCHES SAME FILL-ORIGIN LEVEL: 0 DIFFERENT FILL-ORIGIN LEVEL: 0
L1I AVERAGE MISS LATENCY: -nan cycles
L1I RQ	ACCESS:   49344020	FORWARD:          0	MERGED:   17005348	TO_CACHE:   32338672

BTB TOTAL     ACCESS:   19096041  HIT:   19096038  MISS:          3  HIT %:        100  MISS %: 1.57101e-05   MPKI: 3e-05
BTB BRANCH_DIRECT_JUMP	ACCESS:          0  HIT:          0  MISS:          0
BTB BRANCH_INDIRECT	ACCESS:          0  HIT:          0  MISS:          0
BTB BRANCH_CONDITIONAL	ACCESS:   19096041  HIT:   19096038  MISS:          3
BTB BRANCH_DIRECT_CALL	ACCESS:          0  HIT:          0  MISS:          0
BTB BRANCH_INDIRECT_CALL	ACCESS:          0  HIT:          0  MISS:          0
BTB BRANCH_RETURN	ACCESS:          0  HIT:          0  MISS:          0
BTB BRANCH_OTHER ACCESS:          0  HIT:          0  MISS:          0

L2C TOTAL     ACCESS:   33057116  HIT:    7196537  MISS:   25860579  HIT %:      21.77  MISS %:      78.23   MPKI: 258.606
L2C LOAD      ACCESS:   18182190  HIT:    4446613  MISS:   13735577  HIT %:    24.4559  MISS %:    75.5441   MPKI: 137.356
L2C DATA LOAD MPKI: 137.356
L2C INSTRUCTION LOAD MPKI: 0
L2C PREFETCH  ACCESS:   14811202  HIT:    2689827  MISS:   12121375  HIT %:    18.1608  MISS %:    81.8392   MPKI: 121.214
AGUS PREFETCH L1 MISS: 0
L2C DATA PREFETCH MPKI: 121.214
L2C INSTRUCTION PREFETCH MPKI: 0
L2C WRITEBACK ACCESS:      44492  HIT:      44315  MISS:        177  HIT %:    99.6022  MISS %:   0.397824   MPKI: 0.00177
L2C LOAD TRANSLATION ACCESS:      19232  HIT:      15782  MISS:       3450  HIT %:    82.0611  MISS %:    17.9389   MPKI: 0.0345
L2C PREFETCH  REQUESTED:   14819556  ISSUED:   14819527  USEFUL:    1399569  USELESS:   10721812
L2C USEFUL LOAD PREFETCHES:    1399569 PREFETCH ISSUED TO LOWER LEVEL:   12127361  ACCURACY: 11.5406
L2C TIMELY PREFETCHES:    1399569 LATE PREFETCHES: 5985 DROPPED PREFETCHES: 0
L2C PREFETCHES SAME FILL-ORIGIN LEVEL: 12127361 DIFFERENT FILL-ORIGIN LEVEL: 0
L2C AVERAGE MISS LATENCY: 97.9148 cycles
L2C RQ	ACCESS:   18201423	FORWARD:          0	MERGED:          0	TO_CACHE:   18201422
L2C WQ	ACCESS:      44492	FORWARD:          1	MERGED:          0	TO_CACHE:      44492
L2C PQ	ACCESS:   14819527	FORWARD:          0	MERGED:        256	TO_CACHE:   14819271

L2C Instructions Evicting Data 0
L2C Translations Evicting Data 3450
L2C Data Evicting Data 25853505
L2C Instructions Evicting Instructions 0
L2C Translations Evicting Instructions 0
L2C Data Evicting Instructions 0
L2C Instructions Evicting Translations 0
L2C Translations Evicting Translations 0
L2C Data Evicting Translations 3447
L2C Dense regions hint from L2: 0
PSCL5 TOTAL     ACCESS:      19228  HIT:      19228  MISS:          0  HIT %:        100  MISS %:          0   MPKI: 0
PSCL5 LOAD TRANSLATION ACCESS:      19228  HIT:      19228  MISS:          0  HIT %:        100  MISS %:          0   MPKI: 0
PSCL5 PREFETCH  REQUESTED:          0  ISSUED:          0  USEFUL:          0  USELESS:          0
PSCL5 USEFUL LOAD PREFETCHES:          0 PREFETCH ISSUED TO LOWER LEVEL:          0  ACCURACY: -nan
PSCL5 TIMELY PREFETCHES:          0 LATE PREFETCHES: 0 DROPPED PREFETCHES: 0
PSCL5 PREFETCHES SAME FILL-ORIGIN LEVEL: 0 DIFFERENT FILL-ORIGIN LEVEL: 0

PSCL4 TOTAL     ACCESS:      19228  HIT:      19228  MISS:          0  HIT %:        100  MISS %:          0   MPKI: 0
PSCL4 LOAD TRANSLATION ACCESS:      19228  HIT:      19228  MISS:          0  HIT %:        100  MISS %:          0   MPKI: 0
PSCL4 PREFETCH  REQUESTED:          0  ISSUED:          0  USEFUL:          0  USELESS:          0
PSCL4 USEFUL LOAD PREFETCHES:          0 PREFETCH ISSUED TO LOWER LEVEL:          0  ACCURACY: -nan
PSCL4 TIMELY PREFETCHES:          0 LATE PREFETCHES: 0 DROPPED PREFETCHES: 0
PSCL4 PREFETCHES SAME FILL-ORIGIN LEVEL: 0 DIFFERENT FILL-ORIGIN LEVEL: 0

PSCL3 TOTAL     ACCESS:      19228  HIT:      19228  MISS:          0  HIT %:        100  MISS %:          0   MPKI: 0
PSCL3 LOAD TRANSLATION ACCESS:      19228  HIT:      19228  MISS:          0  HIT %:        100  MISS %:          0   MPKI: 0
PSCL3 PREFETCH  REQUESTED:          0  ISSUED:          0  USEFUL:          0  USELESS:          0
PSCL3 USEFUL LOAD PREFETCHES:          0 PREFETCH ISSUED TO LOWER LEVEL:          0  ACCURACY: -nan
PSCL3 TIMELY PREFETCHES:          0 LATE PREFETCHES: 0 DROPPED PREFETCHES: 0
PSCL3 PREFETCHES SAME FILL-ORIGIN LEVEL: 0 DIFFERENT FILL-ORIGIN LEVEL: 0

PSCL2 TOTAL     ACCESS:      19228  HIT:      19190  MISS:         38  HIT %:    99.8024  MISS %:   0.197628   MPKI: 0.00038
PSCL2 LOAD TRANSLATION ACCESS:      19228  HIT:      19190  MISS:         38  HIT %:    99.8024  MISS %:   0.197628   MPKI: 0.00038
PSCL2 PREFETCH  REQUESTED:          0  ISSUED:          0  USEFUL:          0  USELESS:          0
PSCL2 USEFUL LOAD PREFETCHES:          0 PREFETCH ISSUED TO LOWER LEVEL:          0  ACCURACY: -nan
PSCL2 TIMELY PREFETCHES:          0 LATE PREFETCHES: 0 DROPPED PREFETCHES: 0
PSCL2 PREFETCHES SAME FILL-ORIGIN LEVEL: 0 DIFFERENT FILL-ORIGIN LEVEL: 0

LLC TOTAL     ACCESS:   25898009  HIT:   15517622  MISS:   10380387  HIT %:    59.9182  MISS %:    40.0818   MPKI: 103.804
LLC LOAD      ACCESS:   13729592  HIT:    6943555  MISS:    6786037  HIT %:    50.5736  MISS %:    49.4264   MPKI: 67.8604
LLC PREFETCH  ACCESS:   12127361  HIT:    8535707  MISS:    3591654  HIT %:    70.3839  MISS %:    29.6161   MPKI: 35.9165
AGUS PREFETCH L1 MISS: 0
LLC WRITEBACK ACCESS:      37606  HIT:      37595  MISS:         11  HIT %:    99.9707  MISS %:  0.0292507   MPKI: 0.00011
LLC LOAD TRANSLATION ACCESS:       3450  HIT:        765  MISS:       2685  HIT %:    22.1739  MISS %:    77.8261   MPKI: 0.02685
LLC PREFETCH  REQUESTED:          0  ISSUED:          0  USEFUL:     853924  USELESS:    2737875
LLC USEFUL LOAD PREFETCHES:     853924 PREFETCH ISSUED TO LOWER LEVEL:    3591654  ACCURACY: 23.7752
LLC TIMELY PREFETCHES:     853924 LATE PREFETCHES: 0 DROPPED PREFETCHES: 0
LLC PREFETCHES SAME FILL-ORIGIN LEVEL: 0 DIFFERENT FILL-ORIGIN LEVEL: 0
LLC AVERAGE MISS LATENCY: 169.128 cycles
LLC RQ	ACCESS:   13733042	FORWARD:          0	MERGED:          0	TO_CACHE:   13733042
LLC WQ	ACCESS:      37606	FORWARD:          0	MERGED:          0	TO_CACHE:      37606
LLC PQ	ACCESS:   12127361	FORWARD:          0	MERGED:          0	TO_CACHE:   12127361

LLC Dense regions hint to LLC: 0

RAW hits: 0
Loads Generated: 39379035
Loads sent to L1D: 39379034
Stores Generated: 1186906
Stores sent to L1D: 1186906
Major fault: 0 Minor fault: 28425
Allocated PAGES: 28425
Prefetcher final stats
Training Unit Size: 69
Addr table size: 1805705 1805705


Triggers: 19220832
No Prediction: 3418685 17.7864
Stream end: 15657495
No translation: 3015401675 15688.2
Predictions: 20742724 107.918


Stream divergence: 4383514 22.8061
Stream divergence -- new stream: 0

DRAM Statistics
 CHANNEL 0
 RQ ROW_BUFFER_HIT:    1081402  ROW_BUFFER_MISS:    9298974
 DBUS_CONGESTED:         95
 WQ ROW_BUFFER_HIT:      10939  ROW_BUFFER_MISS:      26456  FULL:          0

 AVG_CONGESTED_CYCLE: 5
 All warmup complete: 2
Channel 0 Bank busy for read cycles: 0
Channel 0 Bank busy for write cycles: 0
Channel 0
Rank 0
0banks busy for read cycles: 934497501
0banks busy for write cycles: 34718
1banks busy for read cycles: 667752005
1banks busy for write cycles: 7519391
2banks busy for read cycles: 229592026
2banks busy for write cycles: 351964
3banks busy for read cycles: 70788181
3banks busy for write cycles: 38343
4banks busy for read cycles: 18013249
4banks busy for write cycles: 17359
5banks busy for read cycles: 3931204
5banks busy for write cycles: 6138
6banks busy for read cycles: 728531
6banks busy for write cycles: 1021
7banks busy for read cycles: 239483
7banks busy for write cycles: 286
8banks busy for read cycles: 1482535
8banks busy for write cycles: 0

CPU 0 Branch Prediction Accuracy: 96.3591% MPKI: 6.9527 Average ROB Occupancy at Mispredict: 115.371
Branch types
NOT_BRANCH: 80903809 80.9038%
BRANCH_DIRECT_JUMP: 0 0%
BRANCH_INDIRECT: 0 0%
BRANCH_CONDITIONAL: 19096043 19.096%
BRANCH_DIRECT_CALL: 0 0%
BRANCH_INDIRECT_CALL: 0 0%
BRANCH_RETURN: 0 0%
BRANCH_OTHER: 0 0%

DRAM PAGES: 1048576
Allocated PAGES: 28425
