
*** ChampSim Multicore Out-of-Order Simulator ***

Warmup Instructions: 50000000
Simulation Instructions: 100000000
Number of CPUs: 1
LLC sets: 2048
LLC ways: 16
Off-chip DRAM Size: 4096 MB Channels: 1 Width: 64-bit Data Rate: 6400 MT/s
CPU 0 runs ./traces/GAP/sssp-14.trace.gz
.gz
CPU 0 Bimodal branch predictor
BTB has LRU replacement policy
ITLB has LRU replacement policy
DTLB has LRU replacement policy
STLB has LRU replacement policy
L1I has LRU replacement policy
L1D has LRU replacement policy
L2C has LRU replacement policy
LLC has LRU replacement policy
Heartbeat CPU 0 instructions: 10000000 cycles: 3246187 heartbeat IPC: 3.08054 cumulative IPC: 3.08054 (Simulation time: 0 hr 2 min 51 sec) 
Heartbeat CPU 0 instructions: 20000000 cycles: 6498739 heartbeat IPC: 3.07451 cumulative IPC: 3.07752 (Simulation time: 0 hr 6 min 15 sec) 
Heartbeat CPU 0 instructions: 30000001 cycles: 9790219 heartbeat IPC: 3.03815 cumulative IPC: 3.06428 (Simulation time: 0 hr 9 min 45 sec) 
Heartbeat CPU 0 instructions: 40000000 cycles: 13096102 heartbeat IPC: 3.02491 cumulative IPC: 3.05434 (Simulation time: 0 hr 13 min 17 sec) 
Heartbeat CPU 0 instructions: 50000000 cycles: 16417488 heartbeat IPC: 3.01079 cumulative IPC: 3.04553 (Simulation time: 0 hr 16 min 52 sec) 

Warmup complete CPU 0 instructions: 50000004 cycles: 16417489 (Simulation time: 0 hr 16 min 52 sec) 

Heartbeat CPU 0 instructions: 60000000 cycles: 48577311 heartbeat IPC: 0.310947 cumulative IPC: 0.310947 (Simulation time: 0 hr 17 min 40 sec) 
Heartbeat CPU 0 instructions: 70000001 cycles: 79364737 heartbeat IPC: 0.324808 cumulative IPC: 0.317726 (Simulation time: 0 hr 18 min 29 sec) 
Heartbeat CPU 0 instructions: 80000000 cycles: 109008338 heartbeat IPC: 0.337341 cumulative IPC: 0.324006 (Simulation time: 0 hr 19 min 19 sec) 
Heartbeat CPU 0 instructions: 90000003 cycles: 137872291 heartbeat IPC: 0.346453 cumulative IPC: 0.329341 (Simulation time: 0 hr 20 min 8 sec) 
Heartbeat CPU 0 instructions: 100000000 cycles: 166213020 heartbeat IPC: 0.352849 cumulative IPC: 0.333788 (Simulation time: 0 hr 20 min 58 sec) 
Heartbeat CPU 0 instructions: 110000000 cycles: 194419784 heartbeat IPC: 0.354525 cumulative IPC: 0.337074 (Simulation time: 0 hr 21 min 48 sec) 
Heartbeat CPU 0 instructions: 120000000 cycles: 222313156 heartbeat IPC: 0.358508 cumulative IPC: 0.339978 (Simulation time: 0 hr 22 min 38 sec) 
Heartbeat CPU 0 instructions: 130000003 cycles: 249960481 heartbeat IPC: 0.361699 cumulative IPC: 0.342549 (Simulation time: 0 hr 23 min 28 sec) 
Heartbeat CPU 0 instructions: 140000000 cycles: 277165699 heartbeat IPC: 0.367576 cumulative IPC: 0.345161 (Simulation time: 0 hr 24 min 18 sec) 
Heartbeat CPU 0 instructions: 150000000 cycles: 304521415 heartbeat IPC: 0.365554 cumulative IPC: 0.347097 (Simulation time: 0 hr 25 min 9 sec) 
Finished CPU 0 instructions: 100000000 cycles: 288103927 cumulative IPC: 0.347097 (Simulation time: 0 hr 25 min 9 sec) 

ChampSim completed all CPUs

Region of Interest Statistics

CPU 0 cumulative IPC: 0.347097 instructions: 100000000 cycles: 288103927
ITLB TOTAL     ACCESS:   12073959  HIT:   12073959  MISS:          0  HIT %:        100  MISS %:          0   MPKI: 0
ITLB LOAD TRANSLATION ACCESS:   12073959  HIT:   12073959  MISS:          0  HIT %:        100  MISS %:          0   MPKI: 0
ITLB PREFETCH  REQUESTED:          0  ISSUED:          0  USEFUL:          0  USELESS:          0
ITLB USEFUL LOAD PREFETCHES:          0 PREFETCH ISSUED TO LOWER LEVEL:          0  ACCURACY: -nan
ITLB TIMELY PREFETCHES:          0 LATE PREFETCHES: 0 DROPPED PREFETCHES: 0
ITLB PREFETCHES SAME FILL-ORIGIN LEVEL: 0 DIFFERENT FILL-ORIGIN LEVEL: 0
ITLB AVERAGE MISS LATENCY: -nan cycles
ITLB RQ	ACCESS:   12494343	FORWARD:          0	MERGED:     420385	TO_CACHE:   12073958

DTLB TOTAL     ACCESS:   21042791  HIT:   19000758  MISS:    2042033  HIT %:    90.2958  MISS %:    9.70419   MPKI: 20.4203
DTLB LOAD TRANSLATION ACCESS:   21042791  HIT:   19000758  MISS:    2042033  HIT %:    90.2958  MISS %:    9.70419   MPKI: 20.4203
DTLB PREFETCH  REQUESTED:          0  ISSUED:          0  USEFUL:          0  USELESS:          0
DTLB USEFUL LOAD PREFETCHES:          0 PREFETCH ISSUED TO LOWER LEVEL:          0  ACCURACY: -nan
DTLB TIMELY PREFETCHES:          0 LATE PREFETCHES: 0 DROPPED PREFETCHES: 0
DTLB PREFETCHES SAME FILL-ORIGIN LEVEL: 0 DIFFERENT FILL-ORIGIN LEVEL: 0
DTLB AVERAGE MISS LATENCY: 11.9106 cycles
DTLB RQ	ACCESS:   22295998	FORWARD:          0	MERGED:    1167594	TO_CACHE:   21128404

STLB TOTAL     ACCESS:    6301961  HIT:    6274306  MISS:      27655  HIT %:    99.5612  MISS %:   0.438832   MPKI: 0.27655
STLB LOAD TRANSLATION ACCESS:    2042033  HIT:    2014378  MISS:      27655  HIT %:    98.6457  MISS %:    1.35429   MPKI: 0.27655
STLB TRANSLATION FROM L1D PREFETCHER ACCESS:    4259928  HIT:    4259928  MISS:          0  HIT %:        100  MISS %:          0   MPKI: 0
STLB PREFETCH  REQUESTED:          0  ISSUED:          0  USEFUL:          0  USELESS:          0
STLB USEFUL LOAD PREFETCHES:          0 PREFETCH ISSUED TO LOWER LEVEL:          0  ACCURACY: -nan
STLB TIMELY PREFETCHES:          0 LATE PREFETCHES: 0 DROPPED PREFETCHES: 0
STLB PREFETCHES SAME FILL-ORIGIN LEVEL: 0 DIFFERENT FILL-ORIGIN LEVEL: 0
STLB AVERAGE MISS LATENCY: 199.265 cycles
STLB RQ	ACCESS:    7546302	FORWARD:          0	MERGED:    1244341	TO_CACHE:    6301961

STLB Hit, L1D data hit: 0
STLB Hit, L2C data hit: 0
STLB Hit, LLC data hit: 0
STLB Hit, LLC data miss: 0
STLB STLB hints to L2: 0
L1D TOTAL     ACCESS:   27288686  HIT:   17725306  MISS:    9563380  HIT %:    64.9548  MISS %:    35.0452   MPKI: 95.6338
L1D LOAD      ACCESS:   20766531  HIT:   16326235  MISS:    4440296  HIT %:     78.618  MISS %:     21.382   MPKI: 44.403
L1D RFO       ACCESS:    1304997  HIT:     968566  MISS:     336431  HIT %:    74.2198  MISS %:    25.7802   MPKI: 3.36431
L1D PREFETCH  ACCESS:    5217158  HIT:     430505  MISS:    4786653  HIT %:    8.25171  MISS %:    91.7483   MPKI: 47.8665
AGUS PREFETCH L1 MISS: 0
L1D PREFETCH  REQUESTED:   11010875  ISSUED:   11008538  USEFUL:     679641  USELESS:    4106971
L1D USEFUL LOAD PREFETCHES:     679641 PREFETCH ISSUED TO LOWER LEVEL:    4877801  ACCURACY: 13.9333
L1D TIMELY PREFETCHES:     679641 LATE PREFETCHES: 91145 DROPPED PREFETCHES: 0
L1D PREFETCHES SAME FILL-ORIGIN LEVEL: 4877801 DIFFERENT FILL-ORIGIN LEVEL: 0
L1D AVERAGE MISS LATENCY: 107.632 cycles
L1D RQ	ACCESS:   37917519	FORWARD:          0	MERGED:   17038063	TO_CACHE:   20877832
L1D WQ	ACCESS:    1418658	FORWARD:       1624	MERGED:        492	TO_CACHE:    1418166
L1D PQ	ACCESS:    5504269	FORWARD:          0	MERGED:          0	TO_CACHE:    5504269

L1D UNIQUE REGIONS ACCESSED: 0
L1D REGIONS CONFLICTS: 0
L1D Cross Page Prefetch Requests: 0
L1D Same Page Prefetch Requests: 8101901
L1D ROI Sum of L1D PQ occupancy: 71587367
L1D PREFETCHES PUSHED FROM L2C: 0
L1I TOTAL     ACCESS:   12494344  HIT:   12494344  MISS:          0  HIT %:        100  MISS %:          0   MPKI: 0
L1I LOAD      ACCESS:   12494344  HIT:   12494344  MISS:          0  HIT %:        100  MISS %:          0   MPKI: 0
L1I PREFETCH  REQUESTED:          0  ISSUED:          0  USEFUL:          0  USELESS:          0
L1I USEFUL LOAD PREFETCHES:          0 PREFETCH ISSUED TO LOWER LEVEL:          0  ACCURACY: -nan
L1I TIMELY PREFETCHES:          0 LATE PREFETCHES: 0 DROPPED PREFETCHES: 0
L1I PREFETCHES SAME FILL-ORIGIN LEVEL: 0 DIFFERENT FILL-ORIGIN LEVEL: 0
L1I AVERAGE MISS LATENCY: -nan cycles
L1I RQ	ACCESS:   20245961	FORWARD:          0	MERGED:    7751618	TO_CACHE:   12494343

BTB TOTAL     ACCESS:   14400412  HIT:   14400265  MISS:        147  HIT %:     99.999  MISS %:  0.0010208   MPKI: 0.00147
BTB BRANCH_DIRECT_JUMP	ACCESS:    4508499  HIT:    4508458  MISS:         41
BTB BRANCH_INDIRECT	ACCESS:          0  HIT:          0  MISS:          0
BTB BRANCH_CONDITIONAL	ACCESS:    9890017  HIT:    9889935  MISS:         82
BTB BRANCH_DIRECT_CALL	ACCESS:        948  HIT:        938  MISS:         10
BTB BRANCH_INDIRECT_CALL	ACCESS:          0  HIT:          0  MISS:          0
BTB BRANCH_RETURN	ACCESS:        948  HIT:        934  MISS:         14
BTB BRANCH_OTHER ACCESS:          0  HIT:          0  MISS:          0

L2C TOTAL     ACCESS:   10504589  HIT:    2464146  MISS:    8040443  HIT %:    23.4578  MISS %:    76.5422   MPKI: 80.4044
L2C LOAD      ACCESS:    4349145  HIT:     702359  MISS:    3646786  HIT %:    16.1494  MISS %:    83.8506   MPKI: 36.4679
L2C DATA LOAD MPKI: 36.4679
L2C INSTRUCTION LOAD MPKI: 0
L2C RFO       ACCESS:     336406  HIT:     208213  MISS:     128193  HIT %:    61.8934  MISS %:    38.1066   MPKI: 1.28193
L2C PREFETCH  ACCESS:    4877796  HIT:     635444  MISS:    4242352  HIT %:    13.0273  MISS %:    86.9727   MPKI: 42.4235
AGUS PREFETCH L1 MISS: 0
L2C DATA PREFETCH MPKI: 42.4235
L2C INSTRUCTION PREFETCH MPKI: 0
L2C WRITEBACK ACCESS:     909056  HIT:     906677  MISS:       2379  HIT %:    99.7383  MISS %:     0.2617   MPKI: 0.02379
L2C LOAD TRANSLATION ACCESS:      32186  HIT:      11453  MISS:      20733  HIT %:    35.5838  MISS %:    64.4162   MPKI: 0.20733
L2C PREFETCH  REQUESTED:          0  ISSUED:          0  USEFUL:     106278  USELESS:    4135993
L2C USEFUL LOAD PREFETCHES:     106278 PREFETCH ISSUED TO LOWER LEVEL:    4242355  ACCURACY: 2.50517
L2C TIMELY PREFETCHES:     106278 LATE PREFETCHES: 0 DROPPED PREFETCHES: 0
L2C PREFETCHES SAME FILL-ORIGIN LEVEL: 0 DIFFERENT FILL-ORIGIN LEVEL: 0
L2C AVERAGE MISS LATENCY: 110.282 cycles
L2C RQ	ACCESS:    4717771	FORWARD:          0	MERGED:          0	TO_CACHE:    4717740
L2C WQ	ACCESS:     909056	FORWARD:         33	MERGED:          0	TO_CACHE:     909056
L2C PQ	ACCESS:    4877801	FORWARD:          0	MERGED:          0	TO_CACHE:    4877799

L2C Instructions Evicting Data 0
L2C Translations Evicting Data 20685
L2C Data Evicting Data 7996645
L2C Instructions Evicting Instructions 0
L2C Translations Evicting Instructions 0
L2C Data Evicting Instructions 0
L2C Instructions Evicting Translations 0
L2C Translations Evicting Translations 48
L2C Data Evicting Translations 20686
L2C Dense regions hint from L2: 0
PSCL5 TOTAL     ACCESS:      27655  HIT:      27655  MISS:          0  HIT %:        100  MISS %:          0   MPKI: 0
PSCL5 LOAD TRANSLATION ACCESS:      27655  HIT:      27655  MISS:          0  HIT %:        100  MISS %:          0   MPKI: 0
PSCL5 PREFETCH  REQUESTED:          0  ISSUED:          0  USEFUL:          0  USELESS:          0
PSCL5 USEFUL LOAD PREFETCHES:          0 PREFETCH ISSUED TO LOWER LEVEL:          0  ACCURACY: -nan
PSCL5 TIMELY PREFETCHES:          0 LATE PREFETCHES: 0 DROPPED PREFETCHES: 0
PSCL5 PREFETCHES SAME FILL-ORIGIN LEVEL: 0 DIFFERENT FILL-ORIGIN LEVEL: 0

PSCL4 TOTAL     ACCESS:      27655  HIT:      27655  MISS:          0  HIT %:        100  MISS %:          0   MPKI: 0
PSCL4 LOAD TRANSLATION ACCESS:      27655  HIT:      27655  MISS:          0  HIT %:        100  MISS %:          0   MPKI: 0
PSCL4 PREFETCH  REQUESTED:          0  ISSUED:          0  USEFUL:          0  USELESS:          0
PSCL4 USEFUL LOAD PREFETCHES:          0 PREFETCH ISSUED TO LOWER LEVEL:          0  ACCURACY: -nan
PSCL4 TIMELY PREFETCHES:          0 LATE PREFETCHES: 0 DROPPED PREFETCHES: 0
PSCL4 PREFETCHES SAME FILL-ORIGIN LEVEL: 0 DIFFERENT FILL-ORIGIN LEVEL: 0

PSCL3 TOTAL     ACCESS:      27655  HIT:      27655  MISS:          0  HIT %:        100  MISS %:          0   MPKI: 0
PSCL3 LOAD TRANSLATION ACCESS:      27655  HIT:      27655  MISS:          0  HIT %:        100  MISS %:          0   MPKI: 0
PSCL3 PREFETCH  REQUESTED:          0  ISSUED:          0  USEFUL:          0  USELESS:          0
PSCL3 USEFUL LOAD PREFETCHES:          0 PREFETCH ISSUED TO LOWER LEVEL:          0  ACCURACY: -nan
PSCL3 TIMELY PREFETCHES:          0 LATE PREFETCHES: 0 DROPPED PREFETCHES: 0
PSCL3 PREFETCHES SAME FILL-ORIGIN LEVEL: 0 DIFFERENT FILL-ORIGIN LEVEL: 0

PSCL2 TOTAL     ACCESS:      27655  HIT:      23122  MISS:       4533  HIT %:    83.6088  MISS %:    16.3912   MPKI: 0.04533
PSCL2 LOAD TRANSLATION ACCESS:      27655  HIT:      23122  MISS:       4533  HIT %:    83.6088  MISS %:    16.3912   MPKI: 0.04533
PSCL2 PREFETCH  REQUESTED:          0  ISSUED:          0  USEFUL:          0  USELESS:          0
PSCL2 USEFUL LOAD PREFETCHES:          0 PREFETCH ISSUED TO LOWER LEVEL:          0  ACCURACY: -nan
PSCL2 TIMELY PREFETCHES:          0 LATE PREFETCHES: 0 DROPPED PREFETCHES: 0
PSCL2 PREFETCHES SAME FILL-ORIGIN LEVEL: 0 DIFFERENT FILL-ORIGIN LEVEL: 0

LLC TOTAL     ACCESS:    8594433  HIT:    4298964  MISS:    4295469  HIT %:    50.0203  MISS %:    49.9797   MPKI: 42.9547
LLC LOAD      ACCESS:    3646786  HIT:    1890256  MISS:    1756530  HIT %:    51.8335  MISS %:    48.1665   MPKI: 17.5653
LLC RFO       ACCESS:     128193  HIT:      59403  MISS:      68790  HIT %:    46.3387  MISS %:    53.6613   MPKI: 0.6879
LLC PREFETCH  ACCESS:    4242351  HIT:    1794825  MISS:    2447526  HIT %:    42.3073  MISS %:    57.6927   MPKI: 24.4753
AGUS PREFETCH L1 MISS: 0
LLC WRITEBACK ACCESS:     556370  HIT:     550468  MISS:       5902  HIT %:    98.9392  MISS %:     1.0608   MPKI: 0.05902
LLC LOAD TRANSLATION ACCESS:      20733  HIT:       4012  MISS:      16721  HIT %:    19.3508  MISS %:    80.6492   MPKI: 0.16721
LLC PREFETCH  REQUESTED:          0  ISSUED:          0  USEFUL:     325555  USELESS:    2122412
LLC USEFUL LOAD PREFETCHES:     325555 PREFETCH ISSUED TO LOWER LEVEL:    2447529  ACCURACY: 13.3014
LLC TIMELY PREFETCHES:     325555 LATE PREFETCHES: 0 DROPPED PREFETCHES: 0
LLC PREFETCHES SAME FILL-ORIGIN LEVEL: 0 DIFFERENT FILL-ORIGIN LEVEL: 0
LLC AVERAGE MISS LATENCY: 150.16 cycles
LLC RQ	ACCESS:    3795715	FORWARD:          0	MERGED:          0	TO_CACHE:    3795715
LLC WQ	ACCESS:     556370	FORWARD:          1	MERGED:          0	TO_CACHE:     556370
LLC PQ	ACCESS:    4242355	FORWARD:          0	MERGED:          0	TO_CACHE:    4242354

LLC Dense regions hint to LLC: 0

RAW hits: 26322
Loads Generated: 37943847
Loads sent to L1D: 37917519
Stores Generated: 1418652
Stores sent to L1D: 1418658
Major fault: 0 Minor fault: 22130
Allocated PAGES: 22130

stream: 
stream:times selected: 9877042
stream:pref_filled: 5701984
stream:pref_useful: 244077
stream:pref_late: 92065
stream:misses: 1284451
stream:misses_by_poll: 0

CS: 
CS:times selected: 1799013
CS:pref_filled: 834443
CS:pref_useful: 789038
CS:pref_late: 18802
CS:misses: 95548
CS:misses_by_poll: 590

CPLX: 
CPLX:times selected: 8036101
CPLX:pref_filled: 205812
CPLX:pref_useful: 13859
CPLX:pref_late: 2507
CPLX:misses: 4828458
CPLX:misses_by_poll: 89

NL_L1: 
NL:times selected: 44712
NL:pref_filled: 36507
NL:pref_useful: 2769
NL:pref_late: 259
NL:misses: 37261
NL:misses_by_poll: 5

total selections: 19756868
total_filled: 4786653
total_useful: 679641
total_late: 116212
total_polluted: 684
total_misses_after_warmup: 4551598
conflicts: 46289

test: 3191156

DRAM Statistics
 CHANNEL 0
 RQ ROW_BUFFER_HIT:    1845887  ROW_BUFFER_MISS:    2443613
 DBUS_CONGESTED:       4425
 WQ ROW_BUFFER_HIT:     137209  ROW_BUFFER_MISS:     337070  FULL:          0

 AVG_CONGESTED_CYCLE: 4
 All warmup complete: 2
Channel 0 Bank busy for read cycles: 0
Channel 0 Bank busy for write cycles: 0
Channel 0
Rank 0
0banks busy for read cycles: 34812896
0banks busy for write cycles: 154439
1banks busy for read cycles: 72276533
1banks busy for write cycles: 25806159
2banks busy for read cycles: 49194558
2banks busy for write cycles: 16202611
3banks busy for read cycles: 32291411
3banks busy for write cycles: 9080109
4banks busy for read cycles: 21419501
4banks busy for write cycles: 4543232
5banks busy for read cycles: 11506537
5banks busy for write cycles: 2017279
6banks busy for read cycles: 5017201
6banks busy for write cycles: 795613
7banks busy for read cycles: 1680197
7banks busy for write cycles: 289988
8banks busy for read cycles: 795537
8banks busy for write cycles: 220127

CPU 0 Branch Prediction Accuracy: 96.8958% MPKI: 4.60791 Average ROB Occupancy at Mispredict: 122.38
Branch types
NOT_BRANCH: 85155829 85.1558%
BRANCH_DIRECT_JUMP: 4508499 4.5085%
BRANCH_INDIRECT: 0 0%
BRANCH_CONDITIONAL: 10333630 10.3336%
BRANCH_DIRECT_CALL: 948 0.000948%
BRANCH_INDIRECT_CALL: 0 0%
BRANCH_RETURN: 948 0.000948%
BRANCH_OTHER: 0 0%

DRAM PAGES: 1048576
Allocated PAGES: 22130
