
*** ChampSim Multicore Out-of-Order Simulator ***

Warmup Instructions: 50000000
Simulation Instructions: 100000000
Number of CPUs: 1
LLC sets: 2048
LLC ways: 16
Off-chip DRAM Size: 4096 MB Channels: 1 Width: 64-bit Data Rate: 6400 MT/s
CPU 0 runs ./traces/GAP/sssp-14.trace.gz
.gz
CPU 0 Bimodal branch predictor
BTB has LRU replacement policy
ITLB has LRU replacement policy
DTLB has LRU replacement policy
STLB has LRU replacement policy
L1I has LRU replacement policy
L1D has LRU replacement policy
Ideal ISB Prefetching
L2C has LRU replacement policy
LLC has LRU replacement policy
Heartbeat CPU 0 instructions: 10000000 cycles: 3247836 heartbeat IPC: 3.07897 cumulative IPC: 3.07897 (Simulation time: 0 hr 0 min 47 sec) 
Heartbeat CPU 0 instructions: 20000000 cycles: 6501635 heartbeat IPC: 3.07333 cumulative IPC: 3.07615 (Simulation time: 0 hr 1 min 56 sec) 
Heartbeat CPU 0 instructions: 30000001 cycles: 9793772 heartbeat IPC: 3.03754 cumulative IPC: 3.06317 (Simulation time: 0 hr 3 min 20 sec) 
Heartbeat CPU 0 instructions: 40000000 cycles: 13100255 heartbeat IPC: 3.02436 cumulative IPC: 3.05338 (Simulation time: 0 hr 4 min 48 sec) 
Heartbeat CPU 0 instructions: 50000000 cycles: 16420964 heartbeat IPC: 3.0114 cumulative IPC: 3.04489 (Simulation time: 0 hr 6 min 21 sec) 

Warmup complete CPU 0 instructions: 50000004 cycles: 16420965 (Simulation time: 0 hr 6 min 21 sec) 

Heartbeat CPU 0 instructions: 60000000 cycles: 54039375 heartbeat IPC: 0.265827 cumulative IPC: 0.265827 (Simulation time: 0 hr 8 min 12 sec) 
Heartbeat CPU 0 instructions: 70000001 cycles: 90210180 heartbeat IPC: 0.276466 cumulative IPC: 0.271042 (Simulation time: 0 hr 10 min 9 sec) 
Heartbeat CPU 0 instructions: 80000000 cycles: 125295334 heartbeat IPC: 0.285021 cumulative IPC: 0.275547 (Simulation time: 0 hr 12 min 9 sec) 
Heartbeat CPU 0 instructions: 90000003 cycles: 159519011 heartbeat IPC: 0.292195 cumulative IPC: 0.279529 (Simulation time: 0 hr 14 min 10 sec) 
Heartbeat CPU 0 instructions: 100000000 cycles: 193235710 heartbeat IPC: 0.296589 cumulative IPC: 0.282782 (Simulation time: 0 hr 16 min 13 sec) 
Heartbeat CPU 0 instructions: 110000000 cycles: 226799281 heartbeat IPC: 0.297942 cumulative IPC: 0.2852 (Simulation time: 0 hr 18 min 14 sec) 
Heartbeat CPU 0 instructions: 120000000 cycles: 259940933 heartbeat IPC: 0.301735 cumulative IPC: 0.287451 (Simulation time: 0 hr 20 min 18 sec) 
Heartbeat CPU 0 instructions: 130000003 cycles: 292805538 heartbeat IPC: 0.304279 cumulative IPC: 0.289452 (Simulation time: 0 hr 22 min 24 sec) 
Heartbeat CPU 0 instructions: 140000000 cycles: 325403063 heartbeat IPC: 0.306772 cumulative IPC: 0.291279 (Simulation time: 0 hr 24 min 28 sec) 
Heartbeat CPU 0 instructions: 150000000 cycles: 357954119 heartbeat IPC: 0.30721 cumulative IPC: 0.292797 (Simulation time: 0 hr 26 min 35 sec) 
Finished CPU 0 instructions: 100000000 cycles: 341533155 cumulative IPC: 0.292797 (Simulation time: 0 hr 26 min 35 sec) 

ChampSim completed all CPUs

Region of Interest Statistics

CPU 0 cumulative IPC: 0.292797 instructions: 100000000 cycles: 341533155
ITLB TOTAL     ACCESS:   12194662  HIT:   12194662  MISS:          0  HIT %:        100  MISS %:          0   MPKI: 0
ITLB LOAD TRANSLATION ACCESS:   12194662  HIT:   12194662  MISS:          0  HIT %:        100  MISS %:          0   MPKI: 0
ITLB PREFETCH  REQUESTED:          0  ISSUED:          0  USEFUL:          0  USELESS:          0
ITLB USEFUL LOAD PREFETCHES:          0 PREFETCH ISSUED TO LOWER LEVEL:          0  ACCURACY: -nan
ITLB TIMELY PREFETCHES:          0 LATE PREFETCHES: 0 DROPPED PREFETCHES: 0
ITLB PREFETCHES SAME FILL-ORIGIN LEVEL: 0 DIFFERENT FILL-ORIGIN LEVEL: 0
ITLB AVERAGE MISS LATENCY: -nan cycles
ITLB RQ	ACCESS:   12614989	FORWARD:          0	MERGED:     420328	TO_CACHE:   12194661

DTLB TOTAL     ACCESS:   20873661  HIT:   18831666  MISS:    2041995  HIT %:    90.2174  MISS %:    9.78264   MPKI: 20.42
DTLB LOAD TRANSLATION ACCESS:   20873661  HIT:   18831666  MISS:    2041995  HIT %:    90.2174  MISS %:    9.78264   MPKI: 20.42
DTLB PREFETCH  REQUESTED:          0  ISSUED:          0  USEFUL:          0  USELESS:          0
DTLB USEFUL LOAD PREFETCHES:          0 PREFETCH ISSUED TO LOWER LEVEL:          0  ACCURACY: -nan
DTLB TIMELY PREFETCHES:          0 LATE PREFETCHES: 0 DROPPED PREFETCHES: 0
DTLB PREFETCHES SAME FILL-ORIGIN LEVEL: 0 DIFFERENT FILL-ORIGIN LEVEL: 0
DTLB AVERAGE MISS LATENCY: 11.883 cycles
DTLB RQ	ACCESS:   22473295	FORWARD:          0	MERGED:    1542390	TO_CACHE:   20930905

STLB TOTAL     ACCESS:    2041995  HIT:    2014466  MISS:      27529  HIT %:    98.6519  MISS %:    1.34814   MPKI: 0.27529
STLB LOAD TRANSLATION ACCESS:    2041995  HIT:    2014466  MISS:      27529  HIT %:    98.6519  MISS %:    1.34814   MPKI: 0.27529
STLB PREFETCH  REQUESTED:          0  ISSUED:          0  USEFUL:          0  USELESS:          0
STLB USEFUL LOAD PREFETCHES:          0 PREFETCH ISSUED TO LOWER LEVEL:          0  ACCURACY: -nan
STLB TIMELY PREFETCHES:          0 LATE PREFETCHES: 0 DROPPED PREFETCHES: 0
STLB PREFETCHES SAME FILL-ORIGIN LEVEL: 0 DIFFERENT FILL-ORIGIN LEVEL: 0
STLB AVERAGE MISS LATENCY: 193.164 cycles
STLB RQ	ACCESS:    2041995	FORWARD:          0	MERGED:          0	TO_CACHE:    2041995

STLB Hit, L1D data hit: 0
STLB Hit, L2C data hit: 0
STLB Hit, LLC data hit: 0
STLB Hit, LLC data miss: 0
STLB STLB hints to L2: 0
L1D TOTAL     ACCESS:   20323197  HIT:   14970507  MISS:    5352690  HIT %:    73.6622  MISS %:    26.3378   MPKI: 53.5269
L1D LOAD      ACCESS:   19016759  HIT:   13951698  MISS:    5065061  HIT %:    73.3653  MISS %:    26.6347   MPKI: 50.6506
L1D RFO       ACCESS:    1306438  HIT:    1018809  MISS:     287629  HIT %:    77.9837  MISS %:    22.0163   MPKI: 2.87629
L1D PREFETCH  REQUESTED:          0  ISSUED:          0  USEFUL:          0  USELESS:          0
L1D USEFUL LOAD PREFETCHES:          0 PREFETCH ISSUED TO LOWER LEVEL:          0  ACCURACY: -nan
L1D TIMELY PREFETCHES:          0 LATE PREFETCHES: 0 DROPPED PREFETCHES: 0
L1D PREFETCHES SAME FILL-ORIGIN LEVEL: 0 DIFFERENT FILL-ORIGIN LEVEL: 0
L1D AVERAGE MISS LATENCY: 99.2422 cycles
L1D RQ	ACCESS:   37918308	FORWARD:          0	MERGED:   16861134	TO_CACHE:   21055133
L1D WQ	ACCESS:    1418658	FORWARD:       2041	MERGED:        496	TO_CACHE:    1418162

L1D UNIQUE REGIONS ACCESSED: 0
L1D REGIONS CONFLICTS: 0
L1D Cross Page Prefetch Requests: 0
L1D Same Page Prefetch Requests: 0
L1D ROI Sum of L1D PQ occupancy: 0
L1D PREFETCHES PUSHED FROM L2C: 0
L1I TOTAL     ACCESS:   12614990  HIT:   12614990  MISS:          0  HIT %:        100  MISS %:          0   MPKI: 0
L1I LOAD      ACCESS:   12614990  HIT:   12614990  MISS:          0  HIT %:        100  MISS %:          0   MPKI: 0
L1I PREFETCH  REQUESTED:          0  ISSUED:          0  USEFUL:          0  USELESS:          0
L1I USEFUL LOAD PREFETCHES:          0 PREFETCH ISSUED TO LOWER LEVEL:          0  ACCURACY: -nan
L1I TIMELY PREFETCHES:          0 LATE PREFETCHES: 0 DROPPED PREFETCHES: 0
L1I PREFETCHES SAME FILL-ORIGIN LEVEL: 0 DIFFERENT FILL-ORIGIN LEVEL: 0
L1I AVERAGE MISS LATENCY: -nan cycles
L1I RQ	ACCESS:   20438430	FORWARD:          0	MERGED:    7823441	TO_CACHE:   12614989

BTB TOTAL     ACCESS:   14400412  HIT:   14400265  MISS:        147  HIT %:     99.999  MISS %:  0.0010208   MPKI: 0.00147
BTB BRANCH_DIRECT_JUMP	ACCESS:    4508499  HIT:    4508458  MISS:         41
BTB BRANCH_INDIRECT	ACCESS:          0  HIT:          0  MISS:          0
BTB BRANCH_CONDITIONAL	ACCESS:    9890017  HIT:    9889935  MISS:         82
BTB BRANCH_DIRECT_CALL	ACCESS:        948  HIT:        938  MISS:         10
BTB BRANCH_INDIRECT_CALL	ACCESS:          0  HIT:          0  MISS:          0
BTB BRANCH_RETURN	ACCESS:        948  HIT:        934  MISS:         14
BTB BRANCH_OTHER ACCESS:          0  HIT:          0  MISS:          0

L2C TOTAL     ACCESS:   10017749  HIT:    2658581  MISS:    7359168  HIT %:    26.5387  MISS %:    73.4613   MPKI: 73.5917
L2C LOAD      ACCESS:    5065061  HIT:    1118208  MISS:    3946853  HIT %:    22.0769  MISS %:    77.9231   MPKI: 39.4685
L2C DATA LOAD MPKI: 39.4685
L2C INSTRUCTION LOAD MPKI: 0
L2C RFO       ACCESS:     287629  HIT:     162555  MISS:     125074  HIT %:    56.5155  MISS %:    43.4845   MPKI: 1.25074
L2C PREFETCH  ACCESS:    3800686  HIT:     537499  MISS:    3263187  HIT %:    14.1422  MISS %:    85.8578   MPKI: 32.6319
AGUS PREFETCH L1 MISS: 0
L2C DATA PREFETCH MPKI: 32.6319
L2C INSTRUCTION PREFETCH MPKI: 0
L2C WRITEBACK ACCESS:     832315  HIT:     828803  MISS:       3512  HIT %:     99.578  MISS %:   0.421956   MPKI: 0.03512
L2C LOAD TRANSLATION ACCESS:      32058  HIT:      11516  MISS:      20542  HIT %:    35.9224  MISS %:    64.0776   MPKI: 0.20542
L2C PREFETCH  REQUESTED:    4002079  ISSUED:    3998195  USEFUL:     467893  USELESS:    2794896
L2C USEFUL LOAD PREFETCHES:     467893 PREFETCH ISSUED TO LOWER LEVEL:    3284759  ACCURACY: 14.2444
L2C TIMELY PREFETCHES:     467893 LATE PREFETCHES: 21571 DROPPED PREFETCHES: 0
L2C PREFETCHES SAME FILL-ORIGIN LEVEL: 3284759 DIFFERENT FILL-ORIGIN LEVEL: 0
L2C AVERAGE MISS LATENCY: 94.1292 cycles
L2C RQ	ACCESS:    5384749	FORWARD:          0	MERGED:          0	TO_CACHE:    5384749
L2C WQ	ACCESS:     832315	FORWARD:          0	MERGED:          0	TO_CACHE:     832315
L2C PQ	ACCESS:    3998195	FORWARD:          0	MERGED:      94247	TO_CACHE:    3903948

L2C Instructions Evicting Data 0
L2C Translations Evicting Data 20500
L2C Data Evicting Data 7314614
L2C Instructions Evicting Instructions 0
L2C Translations Evicting Instructions 0
L2C Data Evicting Instructions 0
L2C Instructions Evicting Translations 0
L2C Translations Evicting Translations 42
L2C Data Evicting Translations 20500
L2C Dense regions hint from L2: 0
PSCL5 TOTAL     ACCESS:      27529  HIT:      27529  MISS:          0  HIT %:        100  MISS %:          0   MPKI: 0
PSCL5 LOAD TRANSLATION ACCESS:      27529  HIT:      27529  MISS:          0  HIT %:        100  MISS %:          0   MPKI: 0
PSCL5 PREFETCH  REQUESTED:          0  ISSUED:          0  USEFUL:          0  USELESS:          0
PSCL5 USEFUL LOAD PREFETCHES:          0 PREFETCH ISSUED TO LOWER LEVEL:          0  ACCURACY: -nan
PSCL5 TIMELY PREFETCHES:          0 LATE PREFETCHES: 0 DROPPED PREFETCHES: 0
PSCL5 PREFETCHES SAME FILL-ORIGIN LEVEL: 0 DIFFERENT FILL-ORIGIN LEVEL: 0

PSCL4 TOTAL     ACCESS:      27529  HIT:      27529  MISS:          0  HIT %:        100  MISS %:          0   MPKI: 0
PSCL4 LOAD TRANSLATION ACCESS:      27529  HIT:      27529  MISS:          0  HIT %:        100  MISS %:          0   MPKI: 0
PSCL4 PREFETCH  REQUESTED:          0  ISSUED:          0  USEFUL:          0  USELESS:          0
PSCL4 USEFUL LOAD PREFETCHES:          0 PREFETCH ISSUED TO LOWER LEVEL:          0  ACCURACY: -nan
PSCL4 TIMELY PREFETCHES:          0 LATE PREFETCHES: 0 DROPPED PREFETCHES: 0
PSCL4 PREFETCHES SAME FILL-ORIGIN LEVEL: 0 DIFFERENT FILL-ORIGIN LEVEL: 0

PSCL3 TOTAL     ACCESS:      27529  HIT:      27529  MISS:          0  HIT %:        100  MISS %:          0   MPKI: 0
PSCL3 LOAD TRANSLATION ACCESS:      27529  HIT:      27529  MISS:          0  HIT %:        100  MISS %:          0   MPKI: 0
PSCL3 PREFETCH  REQUESTED:          0  ISSUED:          0  USEFUL:          0  USELESS:          0
PSCL3 USEFUL LOAD PREFETCHES:          0 PREFETCH ISSUED TO LOWER LEVEL:          0  ACCURACY: -nan
PSCL3 TIMELY PREFETCHES:          0 LATE PREFETCHES: 0 DROPPED PREFETCHES: 0
PSCL3 PREFETCHES SAME FILL-ORIGIN LEVEL: 0 DIFFERENT FILL-ORIGIN LEVEL: 0

PSCL2 TOTAL     ACCESS:      27529  HIT:      22998  MISS:       4531  HIT %:     83.541  MISS %:     16.459   MPKI: 0.04531
PSCL2 LOAD TRANSLATION ACCESS:      27529  HIT:      22998  MISS:       4531  HIT %:     83.541  MISS %:     16.459   MPKI: 0.04531
PSCL2 PREFETCH  REQUESTED:          0  ISSUED:          0  USEFUL:          0  USELESS:          0
PSCL2 USEFUL LOAD PREFETCHES:          0 PREFETCH ISSUED TO LOWER LEVEL:          0  ACCURACY: -nan
PSCL2 TIMELY PREFETCHES:          0 LATE PREFETCHES: 0 DROPPED PREFETCHES: 0
PSCL2 PREFETCHES SAME FILL-ORIGIN LEVEL: 0 DIFFERENT FILL-ORIGIN LEVEL: 0

LLC TOTAL     ACCESS:    7915979  HIT:    4899799  MISS:    3016180  HIT %:    61.8976  MISS %:    38.1024   MPKI: 30.1618
LLC LOAD      ACCESS:    3925282  HIT:    1870437  MISS:    2054845  HIT %:     47.651  MISS %:     52.349   MPKI: 20.5484
LLC RFO       ACCESS:     125073  HIT:      59310  MISS:      65763  HIT %:    47.4203  MISS %:    52.5797   MPKI: 0.65763
LLC PREFETCH  ACCESS:    3284758  HIT:    2409532  MISS:     875226  HIT %:    73.3549  MISS %:    26.6451   MPKI: 8.75226
AGUS PREFETCH L1 MISS: 0
LLC WRITEBACK ACCESS:     560324  HIT:     555813  MISS:       4511  HIT %:    99.1949  MISS %:    0.80507   MPKI: 0.04511
LLC LOAD TRANSLATION ACCESS:      20542  HIT:       4707  MISS:      15835  HIT %:     22.914  MISS %:     77.086   MPKI: 0.15835
LLC PREFETCH  REQUESTED:          0  ISSUED:          0  USEFUL:     234420  USELESS:     640598
LLC USEFUL LOAD PREFETCHES:     234420 PREFETCH ISSUED TO LOWER LEVEL:     875227  ACCURACY: 26.7839
LLC TIMELY PREFETCHES:     234420 LATE PREFETCHES: 0 DROPPED PREFETCHES: 0
LLC PREFETCHES SAME FILL-ORIGIN LEVEL: 0 DIFFERENT FILL-ORIGIN LEVEL: 0
LLC AVERAGE MISS LATENCY: 156.365 cycles
LLC RQ	ACCESS:    4070899	FORWARD:          0	MERGED:          0	TO_CACHE:    4070898
LLC WQ	ACCESS:     560324	FORWARD:          1	MERGED:          0	TO_CACHE:     560324
LLC PQ	ACCESS:    3284759	FORWARD:          0	MERGED:          0	TO_CACHE:    3284759

LLC Dense regions hint to LLC: 0

RAW hits: 25540
Loads Generated: 37943849
Loads sent to L1D: 37918308
Stores Generated: 1418652
Stores sent to L1D: 1418658
Major fault: 0 Minor fault: 22130
Allocated PAGES: 22130
Prefetcher final stats
Training Unit Size: 206
Addr table size: 912509 912521


Triggers: 5548150
No Prediction: 1340493 24.1611
Stream end: 4122504
No translation: 4188550528 75494.5
Predictions: 5880539 105.991


Stream divergence: 1183550 21.3323
Stream divergence -- new stream: 0

DRAM Statistics
 CHANNEL 0
 RQ ROW_BUFFER_HIT:     955708  ROW_BUFFER_MISS:    2055924
 DBUS_CONGESTED:       2036
 WQ ROW_BUFFER_HIT:     134969  ROW_BUFFER_MISS:     326376  FULL:          0

 AVG_CONGESTED_CYCLE: 4
 All warmup complete: 2
Channel 0 Bank busy for read cycles: 0
Channel 0 Bank busy for write cycles: 0
Channel 0
Rank 0
0banks busy for read cycles: 70932223
0banks busy for write cycles: 210716
1banks busy for read cycles: 116234709
1banks busy for write cycles: 38227648
2banks busy for read cycles: 48034916
2banks busy for write cycles: 17137560
3banks busy for read cycles: 22724474
3banks busy for write cycles: 7192596
4banks busy for read cycles: 10023422
4banks busy for write cycles: 2776766
5banks busy for read cycles: 3872862
5banks busy for write cycles: 971544
6banks busy for read cycles: 1293977
6banks busy for write cycles: 343581
7banks busy for read cycles: 446633
7banks busy for write cycles: 146297
8banks busy for read cycles: 687066
8banks busy for write cycles: 276166

CPU 0 Branch Prediction Accuracy: 96.8958% MPKI: 4.60791 Average ROB Occupancy at Mispredict: 122.978
Branch types
NOT_BRANCH: 85155829 85.1558%
BRANCH_DIRECT_JUMP: 4508499 4.5085%
BRANCH_INDIRECT: 0 0%
BRANCH_CONDITIONAL: 10333630 10.3336%
BRANCH_DIRECT_CALL: 948 0.000948%
BRANCH_INDIRECT_CALL: 0 0%
BRANCH_RETURN: 948 0.000948%
BRANCH_OTHER: 0 0%

DRAM PAGES: 1048576
Allocated PAGES: 22130
