
*** ChampSim Multicore Out-of-Order Simulator ***

Warmup Instructions: 50000000
Simulation Instructions: 50000000
Number of CPUs: 1
LLC sets: 2048
LLC ways: 16
Off-chip DRAM Size: 4096 MB Channels: 1 Width: 64-bit Data Rate: 6400 MT/s
CPU 0 runs traces/SPEC-CPU2017/462.libquantum-714B.champsimtrace.xz
.xz
CPU 0 Bimodal branch predictor
BTB has LRU replacement policy
ITLB has LRU replacement policy
DTLB has LRU replacement policy
STLB has LRU replacement policy
L1I has LRU replacement policy
L1D has LRU replacement policy
L2C has LRU replacement policy
LLC has LRU replacement policy
Heartbeat CPU 0 instructions: 10000001 cycles: 3582958 heartbeat IPC: 2.79099 cumulative IPC: 2.79099 (Simulation time: 0 hr 4 min 48 sec) 
Heartbeat CPU 0 instructions: 20000000 cycles: 6916288 heartbeat IPC: 3 cumulative IPC: 2.89172 (Simulation time: 0 hr 9 min 42 sec) 
Heartbeat CPU 0 instructions: 30000000 cycles: 10460603 heartbeat IPC: 2.82142 cumulative IPC: 2.8679 (Simulation time: 0 hr 15 min 23 sec) 
Heartbeat CPU 0 instructions: 40000000 cycles: 14091809 heartbeat IPC: 2.75391 cumulative IPC: 2.83853 (Simulation time: 0 hr 20 min 51 sec) 
Heartbeat CPU 0 instructions: 50000000 cycles: 17725050 heartbeat IPC: 2.75236 cumulative IPC: 2.82087 (Simulation time: 0 hr 26 min 3 sec) 

Warmup complete CPU 0 instructions: 50000004 cycles: 17725051 (Simulation time: 0 hr 26 min 3 sec) 

Heartbeat CPU 0 instructions: 60000000 cycles: 27765317 heartbeat IPC: 0.995989 cumulative IPC: 0.995989 (Simulation time: 0 hr 27 min 10 sec) 
Heartbeat CPU 0 instructions: 70000000 cycles: 37958309 heartbeat IPC: 0.981066 cumulative IPC: 0.988471 (Simulation time: 0 hr 28 min 2 sec) 
Heartbeat CPU 0 instructions: 80000000 cycles: 53440005 heartbeat IPC: 0.645924 cumulative IPC: 0.839984 (Simulation time: 0 hr 29 min 34 sec) 
Heartbeat CPU 0 instructions: 90000003 cycles: 65853019 heartbeat IPC: 0.805606 cumulative IPC: 0.831118 (Simulation time: 0 hr 30 min 55 sec) 
Heartbeat CPU 0 instructions: 100000000 cycles: 76208999 heartbeat IPC: 0.965625 cumulative IPC: 0.854935 (Simulation time: 0 hr 32 min 9 sec) 
Finished CPU 0 instructions: 50000002 cycles: 58483967 cumulative IPC: 0.854935 (Simulation time: 0 hr 32 min 9 sec) 

ChampSim completed all CPUs

Region of Interest Statistics

CPU 0 cumulative IPC: 0.854935 instructions: 50000002 cycles: 58483967
ITLB TOTAL     ACCESS:    9980522  HIT:    9980522  MISS:          0  HIT %:        100  MISS %:          0   MPKI: 0
ITLB LOAD TRANSLATION ACCESS:    9980522  HIT:    9980522  MISS:          0  HIT %:        100  MISS %:          0   MPKI: 0
ITLB PREFETCH  REQUESTED:          0  ISSUED:          0  USEFUL:          0  USELESS:          0
ITLB USEFUL LOAD PREFETCHES:          0 PREFETCH ISSUED TO LOWER LEVEL:          0  ACCURACY: -nan
ITLB TIMELY PREFETCHES:          0 LATE PREFETCHES: 0 DROPPED PREFETCHES: 0
ITLB PREFETCHES SAME FILL-ORIGIN LEVEL: 0 DIFFERENT FILL-ORIGIN LEVEL: 0
ITLB AVERAGE MISS LATENCY: -nan cycles
ITLB RQ	ACCESS:   11041536	FORWARD:          0	MERGED:    1061015	TO_CACHE:    9980521

DTLB TOTAL     ACCESS:    7055133  HIT:    7034402  MISS:      20731  HIT %:    99.7062  MISS %:   0.293843   MPKI: 0.41462
DTLB LOAD TRANSLATION ACCESS:    7055133  HIT:    7034402  MISS:      20731  HIT %:    99.7062  MISS %:   0.293843   MPKI: 0.41462
DTLB PREFETCH  REQUESTED:          0  ISSUED:          0  USEFUL:          0  USELESS:          0
DTLB USEFUL LOAD PREFETCHES:          0 PREFETCH ISSUED TO LOWER LEVEL:          0  ACCURACY: -nan
DTLB TIMELY PREFETCHES:          0 LATE PREFETCHES: 0 DROPPED PREFETCHES: 0
DTLB PREFETCHES SAME FILL-ORIGIN LEVEL: 0 DIFFERENT FILL-ORIGIN LEVEL: 0
DTLB AVERAGE MISS LATENCY: 9.09286 cycles
DTLB RQ	ACCESS:    8300247	FORWARD:          0	MERGED:    1245036	TO_CACHE:    7055211

STLB TOTAL     ACCESS:    1183465  HIT:    1162731  MISS:      20734  HIT %:     98.248  MISS %:    1.75197   MPKI: 0.41468
STLB LOAD TRANSLATION ACCESS:      20731  HIT:      20710  MISS:         21  HIT %:    99.8987  MISS %:   0.101298   MPKI: 0.00042
STLB TRANSLATION FROM L1D PREFETCHER ACCESS:    1162734  HIT:    1142021  MISS:      20713  HIT %:    98.2186  MISS %:     1.7814   MPKI: 0.41426
STLB PREFETCH  REQUESTED:          0  ISSUED:          0  USEFUL:      20712  USELESS:          0
STLB USEFUL LOAD PREFETCHES:      20712 PREFETCH ISSUED TO LOWER LEVEL:          0  ACCURACY: inf
STLB TIMELY PREFETCHES:      20712 LATE PREFETCHES: 0 DROPPED PREFETCHES: 0
STLB PREFETCHES SAME FILL-ORIGIN LEVEL: 0 DIFFERENT FILL-ORIGIN LEVEL: 0
STLB AVERAGE MISS LATENCY: 45.9611 cycles
STLB RQ	ACCESS:    1497920	FORWARD:          0	MERGED:     314165	TO_CACHE:    1183755

STLB Hit, L1D data hit: 0
STLB Hit, L2C data hit: 0
STLB Hit, LLC data hit: 0
STLB Hit, LLC data miss: 0
STLB STLB hints to L2: 0
L1D TOTAL     ACCESS:    9428664  HIT:    8101230  MISS:    1327434  HIT %:    85.9213  MISS %:    14.0787   MPKI: 26.5487
L1D LOAD      ACCESS:    6034176  HIT:    5814278  MISS:     219898  HIT %:    96.3558  MISS %:    3.64421   MPKI: 4.39796
L1D RFO       ACCESS:    2108692  HIT:    2108684  MISS:          8  HIT %:    99.9996  MISS %: 0.000379382   MPKI: 0.00016
L1D PREFETCH  ACCESS:    1285796  HIT:     178268  MISS:    1107528  HIT %:    13.8644  MISS %:    86.1356   MPKI: 22.1506
AGUS PREFETCH L1 MISS: 0
L1D PREFETCH  REQUESTED:    3095615  ISSUED:    2954378  USEFUL:    1106596  USELESS:        932
L1D USEFUL LOAD PREFETCHES:    1106596 PREFETCH ISSUED TO LOWER LEVEL:    1288983  ACCURACY: 85.8503
L1D TIMELY PREFETCHES:    1106596 LATE PREFETCHES: 181453 DROPPED PREFETCHES: 0
L1D PREFETCHES SAME FILL-ORIGIN LEVEL: 1288983 DIFFERENT FILL-ORIGIN LEVEL: 0
L1D AVERAGE MISS LATENCY: 193.21 cycles
L1D RQ	ACCESS:   15917877	FORWARD:          0	MERGED:    9726334	TO_CACHE:    6191539
L1D WQ	ACCESS:    2108708	FORWARD:          4	MERGED:          0	TO_CACHE:    2108708
L1D PQ	ACCESS:    1477189	FORWARD:          0	MERGED:          0	TO_CACHE:    1477189

L1D UNIQUE REGIONS ACCESSED: 0
L1D REGIONS CONFLICTS: 0
L1D Cross Page Prefetch Requests: 374155
L1D Same Page Prefetch Requests: 2462698
L1D ROI Sum of L1D PQ occupancy: 24604849
L1D PREFETCHES PUSHED FROM L2C: 0
L1I TOTAL     ACCESS:   11041535  HIT:   11041535  MISS:          0  HIT %:        100  MISS %:          0   MPKI: 0
L1I LOAD      ACCESS:   11041535  HIT:   11041535  MISS:          0  HIT %:        100  MISS %:          0   MPKI: 0
L1I PREFETCH  REQUESTED:          0  ISSUED:          0  USEFUL:          0  USELESS:          0
L1I USEFUL LOAD PREFETCHES:          0 PREFETCH ISSUED TO LOWER LEVEL:          0  ACCURACY: -nan
L1I TIMELY PREFETCHES:          0 LATE PREFETCHES: 0 DROPPED PREFETCHES: 0
L1I PREFETCHES SAME FILL-ORIGIN LEVEL: 0 DIFFERENT FILL-ORIGIN LEVEL: 0
L1I AVERAGE MISS LATENCY: -nan cycles
L1I RQ	ACCESS:   18118408	FORWARD:          0	MERGED:    7076872	TO_CACHE:   11041536

BTB TOTAL     ACCESS:    8514769  HIT:    8514746  MISS:         23  HIT %:    99.9997  MISS %: 0.000270119   MPKI: 0.00046
BTB BRANCH_DIRECT_JUMP	ACCESS:          0  HIT:          0  MISS:          0
BTB BRANCH_INDIRECT	ACCESS:          2  HIT:          1  MISS:          1
BTB BRANCH_CONDITIONAL	ACCESS:    8514747  HIT:    8514743  MISS:          4
BTB BRANCH_DIRECT_CALL	ACCESS:         10  HIT:          1  MISS:          9
BTB BRANCH_INDIRECT_CALL	ACCESS:          0  HIT:          0  MISS:          0
BTB BRANCH_RETURN	ACCESS:         10  HIT:          1  MISS:          9
BTB BRANCH_OTHER ACCESS:          0  HIT:          0  MISS:          0

L2C TOTAL     ACCESS:    1883958  HIT:     554841  MISS:    1329117  HIT %:    29.4508  MISS %:    70.5492   MPKI: 26.5823
L2C LOAD      ACCESS:      38445  HIT:        359  MISS:      38086  HIT %:   0.933802  MISS %:    99.0662   MPKI: 0.76172
L2C DATA LOAD MPKI: 0.76172
L2C INSTRUCTION LOAD MPKI: 0
L2C RFO       ACCESS:          8  HIT:          0  MISS:          8  HIT %:          0  MISS %:        100   MPKI: 0.00016
L2C PREFETCH  ACCESS:    1288981  HIT:        555  MISS:    1288426  HIT %:  0.0430573  MISS %:    99.9569   MPKI: 25.7685
AGUS PREFETCH L1 MISS: 0
L2C DATA PREFETCH MPKI: 25.7685
L2C INSTRUCTION PREFETCH MPKI: 0
L2C WRITEBACK ACCESS:     535790  HIT:     535790  MISS:          0  HIT %:        100  MISS %:          0   MPKI: 0
L2C LOAD TRANSLATION ACCESS:         21  HIT:         14  MISS:          7  HIT %:    66.6667  MISS %:    33.3333   MPKI: 0.00014
L2C TRANSLATION FROM L1D PREFETCHER ACCESS:      20713  HIT:      18123  MISS:       2590  HIT %:    87.4958  MISS %:    12.5042   MPKI: 0.0518
L2C PREFETCH  REQUESTED:          0  ISSUED:          0  USEFUL:       2947  USELESS:    1288101
L2C USEFUL LOAD PREFETCHES:       2947 PREFETCH ISSUED TO LOWER LEVEL:    1288428  ACCURACY: 0.228728
L2C TIMELY PREFETCHES:       2947 LATE PREFETCHES: 0 DROPPED PREFETCHES: 0
L2C PREFETCHES SAME FILL-ORIGIN LEVEL: 0 DIFFERENT FILL-ORIGIN LEVEL: 0
L2C AVERAGE MISS LATENCY: 178.248 cycles
L2C RQ	ACCESS:      59187	FORWARD:          0	MERGED:          0	TO_CACHE:      59187
L2C WQ	ACCESS:     535790	FORWARD:          0	MERGED:          0	TO_CACHE:     535790
L2C PQ	ACCESS:    1288983	FORWARD:          0	MERGED:          0	TO_CACHE:    1288983

L2C Instructions Evicting Data 0
L2C Translations Evicting Data 2597
L2C Data Evicting Data 1323924
L2C Instructions Evicting Instructions 0
L2C Translations Evicting Instructions 0
L2C Data Evicting Instructions 0
L2C Instructions Evicting Translations 0
L2C Translations Evicting Translations 0
L2C Data Evicting Translations 2596
L2C Dense regions hint from L2: 0
PSCL5 TOTAL     ACCESS:      20734  HIT:      20734  MISS:          0  HIT %:        100  MISS %:          0   MPKI: 0
PSCL5 LOAD TRANSLATION ACCESS:         21  HIT:         21  MISS:          0  HIT %:        100  MISS %:          0   MPKI: 0
PSCL5 TRANSLATION FROM L1D PREFETCHER ACCESS:      20713  HIT:      20713  MISS:          0  HIT %:        100  MISS %:          0   MPKI: 0
PSCL5 PREFETCH  REQUESTED:          0  ISSUED:          0  USEFUL:          0  USELESS:          0
PSCL5 USEFUL LOAD PREFETCHES:          0 PREFETCH ISSUED TO LOWER LEVEL:          0  ACCURACY: -nan
PSCL5 TIMELY PREFETCHES:          0 LATE PREFETCHES: 0 DROPPED PREFETCHES: 0
PSCL5 PREFETCHES SAME FILL-ORIGIN LEVEL: 0 DIFFERENT FILL-ORIGIN LEVEL: 0

PSCL4 TOTAL     ACCESS:      20734  HIT:      20734  MISS:          0  HIT %:        100  MISS %:          0   MPKI: 0
PSCL4 LOAD TRANSLATION ACCESS:         21  HIT:         21  MISS:          0  HIT %:        100  MISS %:          0   MPKI: 0
PSCL4 TRANSLATION FROM L1D PREFETCHER ACCESS:      20713  HIT:      20713  MISS:          0  HIT %:        100  MISS %:          0   MPKI: 0
PSCL4 PREFETCH  REQUESTED:          0  ISSUED:          0  USEFUL:          0  USELESS:          0
PSCL4 USEFUL LOAD PREFETCHES:          0 PREFETCH ISSUED TO LOWER LEVEL:          0  ACCURACY: -nan
PSCL4 TIMELY PREFETCHES:          0 LATE PREFETCHES: 0 DROPPED PREFETCHES: 0
PSCL4 PREFETCHES SAME FILL-ORIGIN LEVEL: 0 DIFFERENT FILL-ORIGIN LEVEL: 0

PSCL3 TOTAL     ACCESS:      20734  HIT:      20734  MISS:          0  HIT %:        100  MISS %:          0   MPKI: 0
PSCL3 LOAD TRANSLATION ACCESS:         21  HIT:         21  MISS:          0  HIT %:        100  MISS %:          0   MPKI: 0
PSCL3 TRANSLATION FROM L1D PREFETCHER ACCESS:      20713  HIT:      20713  MISS:          0  HIT %:        100  MISS %:          0   MPKI: 0
PSCL3 PREFETCH  REQUESTED:          0  ISSUED:          0  USEFUL:          0  USELESS:          0
PSCL3 USEFUL LOAD PREFETCHES:          0 PREFETCH ISSUED TO LOWER LEVEL:          0  ACCURACY: -nan
PSCL3 TIMELY PREFETCHES:          0 LATE PREFETCHES: 0 DROPPED PREFETCHES: 0
PSCL3 PREFETCHES SAME FILL-ORIGIN LEVEL: 0 DIFFERENT FILL-ORIGIN LEVEL: 0

PSCL2 TOTAL     ACCESS:      20734  HIT:      20734  MISS:          0  HIT %:        100  MISS %:          0   MPKI: 0
PSCL2 LOAD TRANSLATION ACCESS:         21  HIT:         21  MISS:          0  HIT %:        100  MISS %:          0   MPKI: 0
PSCL2 TRANSLATION FROM L1D PREFETCHER ACCESS:      20713  HIT:      20713  MISS:          0  HIT %:        100  MISS %:          0   MPKI: 0
PSCL2 PREFETCH  REQUESTED:          0  ISSUED:          0  USEFUL:          0  USELESS:          0
PSCL2 USEFUL LOAD PREFETCHES:          0 PREFETCH ISSUED TO LOWER LEVEL:          0  ACCURACY: -nan
PSCL2 TIMELY PREFETCHES:          0 LATE PREFETCHES: 0 DROPPED PREFETCHES: 0
PSCL2 PREFETCHES SAME FILL-ORIGIN LEVEL: 0 DIFFERENT FILL-ORIGIN LEVEL: 0

LLC TOTAL     ACCESS:    1864676  HIT:     535559  MISS:    1329117  HIT %:    28.7213  MISS %:    71.2787   MPKI: 26.5823
LLC LOAD      ACCESS:      38086  HIT:          0  MISS:      38086  HIT %:          0  MISS %:        100   MPKI: 0.76172
LLC RFO       ACCESS:          8  HIT:          0  MISS:          8  HIT %:          0  MISS %:        100   MPKI: 0.00016
LLC PREFETCH  ACCESS:    1288426  HIT:          0  MISS:    1288426  HIT %:          0  MISS %:        100   MPKI: 25.7685
AGUS PREFETCH L1 MISS: 0
LLC WRITEBACK ACCESS:     535559  HIT:     535559  MISS:          0  HIT %:        100  MISS %:          0   MPKI: 0
LLC LOAD TRANSLATION ACCESS:          7  HIT:          0  MISS:          7  HIT %:          0  MISS %:        100   MPKI: 0.00014
LLC TRANSLATION FROM L1D PREFETCHER ACCESS:       2590  HIT:          0  MISS:       2590  HIT %:          0  MISS %:        100   MPKI: 0.0518
LLC PREFETCH  REQUESTED:          0  ISSUED:          0  USEFUL:          0  USELESS:    1291187
LLC USEFUL LOAD PREFETCHES:          0 PREFETCH ISSUED TO LOWER LEVEL:    1288428  ACCURACY: 0
LLC TIMELY PREFETCHES:          0 LATE PREFETCHES: 0 DROPPED PREFETCHES: 0
LLC PREFETCHES SAME FILL-ORIGIN LEVEL: 0 DIFFERENT FILL-ORIGIN LEVEL: 0
LLC AVERAGE MISS LATENCY: 148.248 cycles
LLC RQ	ACCESS:      40691	FORWARD:          0	MERGED:          0	TO_CACHE:      40691
LLC WQ	ACCESS:     535559	FORWARD:          0	MERGED:          0	TO_CACHE:     535559
LLC PQ	ACCESS:    1288428	FORWARD:          0	MERGED:          0	TO_CACHE:    1288428

LLC Dense regions hint to LLC: 0

RAW hits: 4
Loads Generated: 15917885
Loads sent to L1D: 15917877
Stores Generated: 2108708
Stores sent to L1D: 2108708
Major fault: 0 Minor fault: 8227
Allocated PAGES: 8227

stream: 
stream:times selected: 3223845
stream:pref_reqs: 18253771
stream:pref_reqs_filtered_out: 15739155
stream:pref_filled: 2152214
stream:pref_useful: 2152184
stream:pref_late: 179788
stream:misses: 26
stream:misses_by_poll: 0

CS: 
CS:times selected: 3025356
CS:pref_reqs: 8921854
CS:pref_reqs_filtered_out: 8758948
CS:pref_filled: 3354
CS:pref_useful: 3354
CS:pref_late: 696
CS:misses: 292851
CS:misses_by_poll: 3

CPLX: 
CPLX:times selected: 198456
CPLX:pref_reqs: 550710
CPLX:pref_reqs_filtered_out: 550648
CPLX:pref_filled: 0
CPLX:pref_useful: 0
CPLX:pref_late: 8
CPLX:misses: 32493
CPLX:misses_by_poll: 0

ISB: 
ISB:total access:17990536
ISB:times selected:1112382
ISB:canary counter:0
ISB:pref_reqs: 4084026
ISB:pref_reqs_filtered_out: 3582016
ISB:pref_filled: 235234
ISB:pref_useful: 234298
ISB:pref_late: 1241
ISB:misses: 108204
ISB:misses_by_poll: 2902
ISB:Stream end: 506679
ISB:No Prediction: 16878154 93.8168
ISB:No translation: 460526369 2559.83
ISB:Predictions: 458624 2.54925

NL_L1: 
NL:times selected: 0
NL:pref_reqs: 0
NL:pref_reqs_filtered_out: 0
NL:pref_filled: 0
NL:pref_useful: 0
NL:pref_late: 0
NL:misses: 0
NL:misses_by_poll: 0

Coverage: 83.4226
total selections: 7560039
total_filled: 1107528
total_useful: 1106596
total_late: 183371
total_polluted: 2905
total_misses_after_warmup: 377260
conflicts: 31

test: 0
Prefetcher final stats
Training Unit Size: 6
Addr table size: 239556 239556
Stream divergence: 48880 0.271698
Stream divergence -- new stream: 0
--------------------------Training unit table ------------------------

DRAM Statistics
 CHANNEL 0
 RQ ROW_BUFFER_HIT:     848868  ROW_BUFFER_MISS:     480249
 DBUS_CONGESTED:       9429
 WQ ROW_BUFFER_HIT:     141035  ROW_BUFFER_MISS:     393756  FULL:          0

 AVG_CONGESTED_CYCLE: 5
 All warmup complete: 2
Channel 0 Bank busy for read cycles: 0
Channel 0 Bank busy for write cycles: 0
Channel 0
Rank 0
0banks busy for read cycles: 5360587
0banks busy for write cycles: 10481
1banks busy for read cycles: 17646791
1banks busy for write cycles: 2581696
2banks busy for read cycles: 8669695
2banks busy for write cycles: 60932
3banks busy for read cycles: 2878824
3banks busy for write cycles: 59532
4banks busy for read cycles: 2185276
4banks busy for write cycles: 58613
5banks busy for read cycles: 1179470
5banks busy for write cycles: 60537
6banks busy for read cycles: 651490
6banks busy for write cycles: 65330
7banks busy for read cycles: 684024
7banks busy for write cycles: 600702
8banks busy for read cycles: 6069931
8banks busy for write cycles: 9660057

CPU 0 Branch Prediction Accuracy: 99.8647% MPKI: 0.2304 Average ROB Occupancy at Mispredict: 49.6821
Branch types
NOT_BRANCH: 41485265 82.9705%
BRANCH_DIRECT_JUMP: 0 0%
BRANCH_INDIRECT: 2 4e-06%
BRANCH_CONDITIONAL: 8514761 17.0295%
BRANCH_DIRECT_CALL: 10 2e-05%
BRANCH_INDIRECT_CALL: 0 0%
BRANCH_RETURN: 10 2e-05%
BRANCH_OTHER: 0 0%

DRAM PAGES: 1048576
Allocated PAGES: 8227
