
*** ChampSim Multicore Out-of-Order Simulator ***

Warmup Instructions: 50000000
Simulation Instructions: 50000000
Number of CPUs: 1
LLC sets: 2048
LLC ways: 16
Off-chip DRAM Size: 4096 MB Channels: 1 Width: 64-bit Data Rate: 6400 MT/s
CPU 0 runs traces/SPEC-CPU2017/462.libquantum-714B.champsimtrace.xz
.xz
CPU 0 Bimodal branch predictor
BTB has LRU replacement policy
ITLB has LRU replacement policy
DTLB has LRU replacement policy
STLB has LRU replacement policy
L1I has LRU replacement policy
L1D has LRU replacement policy
L2C has LRU replacement policy
LLC has LRU replacement policy
Heartbeat CPU 0 instructions: 10000001 cycles: 3582958 heartbeat IPC: 2.79099 cumulative IPC: 2.79099 (Simulation time: 0 hr 4 min 37 sec) 
Heartbeat CPU 0 instructions: 20000000 cycles: 6916288 heartbeat IPC: 3 cumulative IPC: 2.89172 (Simulation time: 0 hr 9 min 12 sec) 
Heartbeat CPU 0 instructions: 30000000 cycles: 10460603 heartbeat IPC: 2.82142 cumulative IPC: 2.8679 (Simulation time: 0 hr 14 min 3 sec) 
Heartbeat CPU 0 instructions: 40000000 cycles: 14091809 heartbeat IPC: 2.75391 cumulative IPC: 2.83853 (Simulation time: 0 hr 19 min 28 sec) 
Heartbeat CPU 0 instructions: 50000000 cycles: 17725050 heartbeat IPC: 2.75236 cumulative IPC: 2.82087 (Simulation time: 0 hr 24 min 49 sec) 

Warmup complete CPU 0 instructions: 50000004 cycles: 17725051 (Simulation time: 0 hr 24 min 49 sec) 

Heartbeat CPU 0 instructions: 60000000 cycles: 27742917 heartbeat IPC: 0.998217 cumulative IPC: 0.998216 (Simulation time: 0 hr 25 min 51 sec) 
Heartbeat CPU 0 instructions: 70000000 cycles: 37918450 heartbeat IPC: 0.98275 cumulative IPC: 0.990422 (Simulation time: 0 hr 26 min 55 sec) 
Heartbeat CPU 0 instructions: 80000000 cycles: 53377170 heartbeat IPC: 0.646884 cumulative IPC: 0.841465 (Simulation time: 0 hr 28 min 37 sec) 
Heartbeat CPU 0 instructions: 90000000 cycles: 65801902 heartbeat IPC: 0.804846 cumulative IPC: 0.832001 (Simulation time: 0 hr 30 min 2 sec) 
Heartbeat CPU 0 instructions: 100000000 cycles: 76167272 heartbeat IPC: 0.964751 cumulative IPC: 0.855546 (Simulation time: 0 hr 31 min 15 sec) 
Finished CPU 0 instructions: 50000002 cycles: 58442240 cumulative IPC: 0.855546 (Simulation time: 0 hr 31 min 15 sec) 

ChampSim completed all CPUs

Region of Interest Statistics

CPU 0 cumulative IPC: 0.855546 instructions: 50000002 cycles: 58442240
ITLB TOTAL     ACCESS:    9980344  HIT:    9980344  MISS:          0  HIT %:        100  MISS %:          0   MPKI: 0
ITLB LOAD TRANSLATION ACCESS:    9980344  HIT:    9980344  MISS:          0  HIT %:        100  MISS %:          0   MPKI: 0
ITLB PREFETCH  REQUESTED:          0  ISSUED:          0  USEFUL:          0  USELESS:          0
ITLB USEFUL LOAD PREFETCHES:          0 PREFETCH ISSUED TO LOWER LEVEL:          0  ACCURACY: -nan
ITLB TIMELY PREFETCHES:          0 LATE PREFETCHES: 0 DROPPED PREFETCHES: 0
ITLB PREFETCHES SAME FILL-ORIGIN LEVEL: 0 DIFFERENT FILL-ORIGIN LEVEL: 0
ITLB AVERAGE MISS LATENCY: -nan cycles
ITLB RQ	ACCESS:   11041663	FORWARD:          0	MERGED:    1061320	TO_CACHE:    9980343

DTLB TOTAL     ACCESS:    7108982  HIT:    7088251  MISS:      20731  HIT %:    99.7084  MISS %:   0.291617   MPKI: 0.41462
DTLB LOAD TRANSLATION ACCESS:    7108982  HIT:    7088251  MISS:      20731  HIT %:    99.7084  MISS %:   0.291617   MPKI: 0.41462
DTLB PREFETCH  REQUESTED:          0  ISSUED:          0  USEFUL:          0  USELESS:          0
DTLB USEFUL LOAD PREFETCHES:          0 PREFETCH ISSUED TO LOWER LEVEL:          0  ACCURACY: -nan
DTLB TIMELY PREFETCHES:          0 LATE PREFETCHES: 0 DROPPED PREFETCHES: 0
DTLB PREFETCHES SAME FILL-ORIGIN LEVEL: 0 DIFFERENT FILL-ORIGIN LEVEL: 0
DTLB AVERAGE MISS LATENCY: 9.17496 cycles
DTLB RQ	ACCESS:    8349502	FORWARD:          0	MERGED:    1240386	TO_CACHE:    7109116

STLB TOTAL     ACCESS:    1020774  HIT:    1000043  MISS:      20731  HIT %:    97.9691  MISS %:    2.03091   MPKI: 0.41462
STLB LOAD TRANSLATION ACCESS:      20731  HIT:      20648  MISS:         83  HIT %:    99.5996  MISS %:   0.400367   MPKI: 0.00166
STLB TRANSLATION FROM L1D PREFETCHER ACCESS:    1000043  HIT:     979395  MISS:      20648  HIT %:    97.9353  MISS %:    2.06471   MPKI: 0.41296
STLB PREFETCH  REQUESTED:          0  ISSUED:          0  USEFUL:      20649  USELESS:          0
STLB USEFUL LOAD PREFETCHES:      20649 PREFETCH ISSUED TO LOWER LEVEL:          0  ACCURACY: inf
STLB TIMELY PREFETCHES:      20649 LATE PREFETCHES: 0 DROPPED PREFETCHES: 0
STLB PREFETCHES SAME FILL-ORIGIN LEVEL: 0 DIFFERENT FILL-ORIGIN LEVEL: 0
STLB AVERAGE MISS LATENCY: 55.9612 cycles
STLB RQ	ACCESS:    1386871	FORWARD:          0	MERGED:     363938	TO_CACHE:    1022933

STLB Hit, L1D data hit: 0
STLB Hit, L2C data hit: 0
STLB Hit, LLC data hit: 0
STLB Hit, LLC data miss: 0
STLB STLB hints to L2: 0
L1D TOTAL     ACCESS:    9343697  HIT:    8017175  MISS:    1326522  HIT %:     85.803  MISS %:     14.197   MPKI: 26.5304
L1D LOAD      ACCESS:    6087130  HIT:    5857265  MISS:     229865  HIT %:    96.2238  MISS %:    3.77625   MPKI: 4.5973
L1D RFO       ACCESS:    2108692  HIT:    2108684  MISS:          8  HIT %:    99.9996  MISS %: 0.000379382   MPKI: 0.00016
L1D PREFETCH  ACCESS:    1147875  HIT:      51226  MISS:    1096649  HIT %:    4.46268  MISS %:    95.5373   MPKI: 21.933
AGUS PREFETCH L1 MISS: 0
L1D PREFETCH  REQUESTED:    2839014  ISSUED:    2732280  USEFUL:    1096629  USELESS:         12
L1D USEFUL LOAD PREFETCHES:    1096629 PREFETCH ISSUED TO LOWER LEVEL:    1308071  ACCURACY: 83.8356
L1D TIMELY PREFETCHES:    1096629 LATE PREFETCHES: 211420 DROPPED PREFETCHES: 0
L1D PREFETCHES SAME FILL-ORIGIN LEVEL: 1308071 DIFFERENT FILL-ORIGIN LEVEL: 0
L1D AVERAGE MISS LATENCY: 190.873 cycles
L1D RQ	ACCESS:   15917877	FORWARD:          0	MERGED:    9677079	TO_CACHE:    6240794
L1D WQ	ACCESS:    2108708	FORWARD:          4	MERGED:          0	TO_CACHE:    2108708
L1D PQ	ACCESS:    1366140	FORWARD:          0	MERGED:          0	TO_CACHE:    1366140

L1D UNIQUE REGIONS ACCESSED: 0
L1D REGIONS CONFLICTS: 0
L1D Cross Page Prefetch Requests: 98122
L1D Same Page Prefetch Requests: 2601940
L1D ROI Sum of L1D PQ occupancy: 20978855
L1D PREFETCHES PUSHED FROM L2C: 0
L1I TOTAL     ACCESS:   11041663  HIT:   11041663  MISS:          0  HIT %:        100  MISS %:          0   MPKI: 0
L1I LOAD      ACCESS:   11041663  HIT:   11041663  MISS:          0  HIT %:        100  MISS %:          0   MPKI: 0
L1I PREFETCH  REQUESTED:          0  ISSUED:          0  USEFUL:          0  USELESS:          0
L1I USEFUL LOAD PREFETCHES:          0 PREFETCH ISSUED TO LOWER LEVEL:          0  ACCURACY: -nan
L1I TIMELY PREFETCHES:          0 LATE PREFETCHES: 0 DROPPED PREFETCHES: 0
L1I PREFETCHES SAME FILL-ORIGIN LEVEL: 0 DIFFERENT FILL-ORIGIN LEVEL: 0
L1I AVERAGE MISS LATENCY: -nan cycles
L1I RQ	ACCESS:   18122252	FORWARD:          0	MERGED:    7080589	TO_CACHE:   11041663

BTB TOTAL     ACCESS:    8514768  HIT:    8514745  MISS:         23  HIT %:    99.9997  MISS %: 0.000270119   MPKI: 0.00046
BTB BRANCH_DIRECT_JUMP	ACCESS:          0  HIT:          0  MISS:          0
BTB BRANCH_INDIRECT	ACCESS:          2  HIT:          1  MISS:          1
BTB BRANCH_CONDITIONAL	ACCESS:    8514746  HIT:    8514742  MISS:          4
BTB BRANCH_DIRECT_CALL	ACCESS:         10  HIT:          1  MISS:          9
BTB BRANCH_INDIRECT_CALL	ACCESS:          0  HIT:          0  MISS:          0
BTB BRANCH_RETURN	ACCESS:         10  HIT:          1  MISS:          9
BTB BRANCH_OTHER ACCESS:          0  HIT:          0  MISS:          0

L2C TOTAL     ACCESS:    1883043  HIT:     553926  MISS:    1329117  HIT %:    29.4165  MISS %:    70.5835   MPKI: 26.5823
L2C LOAD      ACCESS:      18445  HIT:          0  MISS:      18445  HIT %:          0  MISS %:        100   MPKI: 0.3689
L2C DATA LOAD MPKI: 0.3689
L2C INSTRUCTION LOAD MPKI: 0
L2C RFO       ACCESS:          8  HIT:          0  MISS:          8  HIT %:          0  MISS %:        100   MPKI: 0.00016
L2C PREFETCH  ACCESS:    1308069  HIT:          0  MISS:    1308069  HIT %:          0  MISS %:        100   MPKI: 26.1614
AGUS PREFETCH L1 MISS: 0
L2C DATA PREFETCH MPKI: 26.1614
L2C INSTRUCTION PREFETCH MPKI: 0
L2C WRITEBACK ACCESS:     535790  HIT:     535790  MISS:          0  HIT %:        100  MISS %:          0   MPKI: 0
L2C LOAD TRANSLATION ACCESS:         83  HIT:         73  MISS:         10  HIT %:    87.9518  MISS %:    12.0482   MPKI: 0.0002
L2C TRANSLATION FROM L1D PREFETCHER ACCESS:      20648  HIT:      18063  MISS:       2585  HIT %:    87.4806  MISS %:    12.5194   MPKI: 0.0517
L2C PREFETCH  REQUESTED:          0  ISSUED:          0  USEFUL:       2585  USELESS:    1308133
L2C USEFUL LOAD PREFETCHES:       2585 PREFETCH ISSUED TO LOWER LEVEL:    1308071  ACCURACY: 0.197619
L2C TIMELY PREFETCHES:       2585 LATE PREFETCHES: 0 DROPPED PREFETCHES: 0
L2C PREFETCHES SAME FILL-ORIGIN LEVEL: 0 DIFFERENT FILL-ORIGIN LEVEL: 0
L2C AVERAGE MISS LATENCY: 175.714 cycles
L2C RQ	ACCESS:      39184	FORWARD:          0	MERGED:          0	TO_CACHE:      39184
L2C WQ	ACCESS:     535790	FORWARD:          0	MERGED:          0	TO_CACHE:     535790
L2C PQ	ACCESS:    1308071	FORWARD:          0	MERGED:          0	TO_CACHE:    1308071

L2C Instructions Evicting Data 0
L2C Translations Evicting Data 2595
L2C Data Evicting Data 1323926
L2C Instructions Evicting Instructions 0
L2C Translations Evicting Instructions 0
L2C Data Evicting Instructions 0
L2C Instructions Evicting Translations 0
L2C Translations Evicting Translations 0
L2C Data Evicting Translations 2596
L2C Dense regions hint from L2: 0
PSCL5 TOTAL     ACCESS:      20731  HIT:      20731  MISS:          0  HIT %:        100  MISS %:          0   MPKI: 0
PSCL5 LOAD TRANSLATION ACCESS:         83  HIT:         83  MISS:          0  HIT %:        100  MISS %:          0   MPKI: 0
PSCL5 TRANSLATION FROM L1D PREFETCHER ACCESS:      20648  HIT:      20648  MISS:          0  HIT %:        100  MISS %:          0   MPKI: 0
PSCL5 PREFETCH  REQUESTED:          0  ISSUED:          0  USEFUL:          0  USELESS:          0
PSCL5 USEFUL LOAD PREFETCHES:          0 PREFETCH ISSUED TO LOWER LEVEL:          0  ACCURACY: -nan
PSCL5 TIMELY PREFETCHES:          0 LATE PREFETCHES: 0 DROPPED PREFETCHES: 0
PSCL5 PREFETCHES SAME FILL-ORIGIN LEVEL: 0 DIFFERENT FILL-ORIGIN LEVEL: 0

PSCL4 TOTAL     ACCESS:      20731  HIT:      20731  MISS:          0  HIT %:        100  MISS %:          0   MPKI: 0
PSCL4 LOAD TRANSLATION ACCESS:         83  HIT:         83  MISS:          0  HIT %:        100  MISS %:          0   MPKI: 0
PSCL4 TRANSLATION FROM L1D PREFETCHER ACCESS:      20648  HIT:      20648  MISS:          0  HIT %:        100  MISS %:          0   MPKI: 0
PSCL4 PREFETCH  REQUESTED:          0  ISSUED:          0  USEFUL:          0  USELESS:          0
PSCL4 USEFUL LOAD PREFETCHES:          0 PREFETCH ISSUED TO LOWER LEVEL:          0  ACCURACY: -nan
PSCL4 TIMELY PREFETCHES:          0 LATE PREFETCHES: 0 DROPPED PREFETCHES: 0
PSCL4 PREFETCHES SAME FILL-ORIGIN LEVEL: 0 DIFFERENT FILL-ORIGIN LEVEL: 0

PSCL3 TOTAL     ACCESS:      20731  HIT:      20731  MISS:          0  HIT %:        100  MISS %:          0   MPKI: 0
PSCL3 LOAD TRANSLATION ACCESS:         83  HIT:         83  MISS:          0  HIT %:        100  MISS %:          0   MPKI: 0
PSCL3 TRANSLATION FROM L1D PREFETCHER ACCESS:      20648  HIT:      20648  MISS:          0  HIT %:        100  MISS %:          0   MPKI: 0
PSCL3 PREFETCH  REQUESTED:          0  ISSUED:          0  USEFUL:          0  USELESS:          0
PSCL3 USEFUL LOAD PREFETCHES:          0 PREFETCH ISSUED TO LOWER LEVEL:          0  ACCURACY: -nan
PSCL3 TIMELY PREFETCHES:          0 LATE PREFETCHES: 0 DROPPED PREFETCHES: 0
PSCL3 PREFETCHES SAME FILL-ORIGIN LEVEL: 0 DIFFERENT FILL-ORIGIN LEVEL: 0

PSCL2 TOTAL     ACCESS:      20731  HIT:      20731  MISS:          0  HIT %:        100  MISS %:          0   MPKI: 0
PSCL2 LOAD TRANSLATION ACCESS:         83  HIT:         83  MISS:          0  HIT %:        100  MISS %:          0   MPKI: 0
PSCL2 TRANSLATION FROM L1D PREFETCHER ACCESS:      20648  HIT:      20648  MISS:          0  HIT %:        100  MISS %:          0   MPKI: 0
PSCL2 PREFETCH  REQUESTED:          0  ISSUED:          0  USEFUL:          0  USELESS:          0
PSCL2 USEFUL LOAD PREFETCHES:          0 PREFETCH ISSUED TO LOWER LEVEL:          0  ACCURACY: -nan
PSCL2 TIMELY PREFETCHES:          0 LATE PREFETCHES: 0 DROPPED PREFETCHES: 0
PSCL2 PREFETCHES SAME FILL-ORIGIN LEVEL: 0 DIFFERENT FILL-ORIGIN LEVEL: 0

LLC TOTAL     ACCESS:    1864676  HIT:     535559  MISS:    1329117  HIT %:    28.7213  MISS %:    71.2787   MPKI: 26.5823
LLC LOAD      ACCESS:      18445  HIT:          0  MISS:      18445  HIT %:          0  MISS %:        100   MPKI: 0.3689
LLC RFO       ACCESS:          8  HIT:          0  MISS:          8  HIT %:          0  MISS %:        100   MPKI: 0.00016
LLC PREFETCH  ACCESS:    1308069  HIT:          0  MISS:    1308069  HIT %:          0  MISS %:        100   MPKI: 26.1614
AGUS PREFETCH L1 MISS: 0
LLC WRITEBACK ACCESS:     535559  HIT:     535559  MISS:          0  HIT %:        100  MISS %:          0   MPKI: 0
LLC LOAD TRANSLATION ACCESS:         10  HIT:          0  MISS:         10  HIT %:          0  MISS %:        100   MPKI: 0.0002
LLC TRANSLATION FROM L1D PREFETCHER ACCESS:       2585  HIT:          0  MISS:       2585  HIT %:          0  MISS %:        100   MPKI: 0.0517
LLC PREFETCH  REQUESTED:          0  ISSUED:          0  USEFUL:          0  USELESS:    1310839
LLC USEFUL LOAD PREFETCHES:          0 PREFETCH ISSUED TO LOWER LEVEL:    1308070  ACCURACY: 0
LLC TIMELY PREFETCHES:          0 LATE PREFETCHES: 0 DROPPED PREFETCHES: 0
LLC PREFETCHES SAME FILL-ORIGIN LEVEL: 0 DIFFERENT FILL-ORIGIN LEVEL: 0
LLC AVERAGE MISS LATENCY: 145.714 cycles
LLC RQ	ACCESS:      21048	FORWARD:          0	MERGED:          0	TO_CACHE:      21048
LLC WQ	ACCESS:     535559	FORWARD:          0	MERGED:          0	TO_CACHE:     535559
LLC PQ	ACCESS:    1308071	FORWARD:          0	MERGED:          0	TO_CACHE:    1308071

LLC Dense regions hint to LLC: 0

RAW hits: 4
Loads Generated: 15917885
Loads sent to L1D: 15917877
Stores Generated: 2108708
Stores sent to L1D: 2108708
Major fault: 0 Minor fault: 8227
Allocated PAGES: 8227

stream: 
stream:times selected: 3223340
stream:pref_reqs: 18251030
stream:pref_reqs_filtered_out: 15733544
stream:pref_filled: 2269620
stream:pref_useful: 2269590
stream:pref_late: 201414
stream:misses: 24
stream:misses_by_poll: 0

CS: 
CS:times selected: 3026452
CS:pref_reqs: 8925029
CS:pref_reqs_filtered_out: 8761872
CS:pref_filled: 4731
CS:pref_useful: 4731
CS:pref_late: 2035
CS:misses: 274743
CS:misses_by_poll: 4

CPLX: 
CPLX:times selected: 196858
CPLX:pref_reqs: 558497
CPLX:pref_reqs_filtered_out: 558437
CPLX:pref_filled: 3
CPLX:pref_useful: 3
CPLX:pref_late: 11
CPLX:misses: 28809
CPLX:misses_by_poll: 0

ISB: 
ISB:total access:18031471
ISB:times selected:333049
ISB:canary counter:0
ISB:pref_reqs: 1249299
ISB:pref_reqs_filtered_out: 921580
ISB:pref_filled: 140136
ISB:pref_useful: 140122
ISB:pref_late: 339
ISB:misses: 94459
ISB:misses_by_poll: 1453
ISB:Stream end: 162958
ISB:No Prediction: 2890292 16.0292
ISB:No translation: 164220888 910.746
ISB:Predictions: 184506 1.02324

NL_L1: 
NL:times selected: 0
NL:pref_reqs: 0
NL:pref_reqs_filtered_out: 0
NL:pref_filled: 0
NL:pref_useful: 0
NL:pref_late: 0
NL:misses: 0
NL:misses_by_poll: 0

Coverage: 82.6712
total selections: 6779699
total_filled: 1096649
total_useful: 1096629
total_late: 211643
total_polluted: 1457
total_misses_after_warmup: 383528
conflicts: 31

test: 0
Prefetcher final stats
Training Unit Size: 2
Addr table size: 215022 215022
Stream divergence: 47160 0.261543
Stream divergence -- new stream: 0
--------------------------Training unit table ------------------------

DRAM Statistics
 CHANNEL 0
 RQ ROW_BUFFER_HIT:     861304  ROW_BUFFER_MISS:     467814
 DBUS_CONGESTED:       4673
 WQ ROW_BUFFER_HIT:     114710  ROW_BUFFER_MISS:     420082  FULL:          0

 AVG_CONGESTED_CYCLE: 5
 All warmup complete: 2
Channel 0 Bank busy for read cycles: 0
Channel 0 Bank busy for write cycles: 0
Channel 0
Rank 0
0banks busy for read cycles: 6431096
0banks busy for write cycles: 10492
1banks busy for read cycles: 18754993
1banks busy for write cycles: 1972204
2banks busy for read cycles: 8395907
2banks busy for write cycles: 59258
3banks busy for read cycles: 1618022
3banks busy for write cycles: 57868
4banks busy for read cycles: 1220581
4banks busy for write cycles: 58365
5banks busy for read cycles: 905183
5banks busy for write cycles: 58749
6banks busy for read cycles: 833093
6banks busy for write cycles: 69989
7banks busy for read cycles: 1047710
7banks busy for write cycles: 637332
8banks busy for read cycles: 6481285
8banks busy for write cycles: 9830114

CPU 0 Branch Prediction Accuracy: 99.8647% MPKI: 0.2304 Average ROB Occupancy at Mispredict: 50.1628
Branch types
NOT_BRANCH: 41485260 82.9705%
BRANCH_DIRECT_JUMP: 0 0%
BRANCH_INDIRECT: 2 4e-06%
BRANCH_CONDITIONAL: 8514760 17.0295%
BRANCH_DIRECT_CALL: 10 2e-05%
BRANCH_INDIRECT_CALL: 0 0%
BRANCH_RETURN: 10 2e-05%
BRANCH_OTHER: 0 0%

DRAM PAGES: 1048576
Allocated PAGES: 8227
