
*** ChampSim Multicore Out-of-Order Simulator ***

Warmup Instructions: 50000000
Simulation Instructions: 50000000
Number of CPUs: 1
LLC sets: 2048
LLC ways: 16
Off-chip DRAM Size: 4096 MB Channels: 1 Width: 64-bit Data Rate: 6400 MT/s
CPU 0 runs traces/SPEC-CPU2017/623.xalancbmk_s-10B.champsimtrace.xz
.xz
CPU 0 Bimodal branch predictor
BTB has LRU replacement policy
ITLB has LRU replacement policy
DTLB has LRU replacement policy
STLB has LRU replacement policy
L1I has LRU replacement policy
L1D has LRU replacement policy
L2C has LRU replacement policy
LLC has LRU replacement policy
Heartbeat CPU 0 instructions: 10000001 cycles: 3160204 heartbeat IPC: 3.16435 cumulative IPC: 3.16435 (Simulation time: 0 hr 4 min 28 sec) 
Heartbeat CPU 0 instructions: 20000000 cycles: 6302831 heartbeat IPC: 3.18205 cumulative IPC: 3.17318 (Simulation time: 0 hr 9 min 11 sec) 
Heartbeat CPU 0 instructions: 30000001 cycles: 9462126 heartbeat IPC: 3.16526 cumulative IPC: 3.17053 (Simulation time: 0 hr 14 min 2 sec) 
Heartbeat CPU 0 instructions: 40000000 cycles: 12629767 heartbeat IPC: 3.15692 cumulative IPC: 3.16712 (Simulation time: 0 hr 19 min 10 sec) 
Heartbeat CPU 0 instructions: 50000000 cycles: 15811818 heartbeat IPC: 3.14263 cumulative IPC: 3.16219 (Simulation time: 0 hr 24 min 22 sec) 

Warmup complete CPU 0 instructions: 50000004 cycles: 15811819 (Simulation time: 0 hr 24 min 22 sec) 

Heartbeat CPU 0 instructions: 60000000 cycles: 44479384 heartbeat IPC: 0.348826 cumulative IPC: 0.348826 (Simulation time: 0 hr 26 min 3 sec) 
Heartbeat CPU 0 instructions: 70000000 cycles: 74361565 heartbeat IPC: 0.334648 cumulative IPC: 0.34159 (Simulation time: 0 hr 27 min 54 sec) 
Heartbeat CPU 0 instructions: 80000000 cycles: 104394001 heartbeat IPC: 0.332973 cumulative IPC: 0.338669 (Simulation time: 0 hr 29 min 36 sec) 
Heartbeat CPU 0 instructions: 90000000 cycles: 133340363 heartbeat IPC: 0.345467 cumulative IPC: 0.340343 (Simulation time: 0 hr 31 min 22 sec) 
Heartbeat CPU 0 instructions: 100000000 cycles: 163806641 heartbeat IPC: 0.328232 cumulative IPC: 0.33785 (Simulation time: 0 hr 33 min 5 sec) 
Finished CPU 0 instructions: 50000003 cycles: 147994856 cumulative IPC: 0.33785 (Simulation time: 0 hr 33 min 5 sec) 

ChampSim completed all CPUs

Region of Interest Statistics

CPU 0 cumulative IPC: 0.33785 instructions: 50000003 cycles: 147994856
ITLB TOTAL     ACCESS:    7900694  HIT:    7866785  MISS:      33909  HIT %:    99.5708  MISS %:    0.42919   MPKI: 0.67818
ITLB LOAD TRANSLATION ACCESS:    7900694  HIT:    7866785  MISS:      33909  HIT %:    99.5708  MISS %:    0.42919   MPKI: 0.67818
ITLB PREFETCH  REQUESTED:          0  ISSUED:          0  USEFUL:          0  USELESS:          0
ITLB USEFUL LOAD PREFETCHES:          0 PREFETCH ISSUED TO LOWER LEVEL:          0  ACCURACY: -nan
ITLB TIMELY PREFETCHES:          0 LATE PREFETCHES: 0 DROPPED PREFETCHES: 0
ITLB PREFETCHES SAME FILL-ORIGIN LEVEL: 0 DIFFERENT FILL-ORIGIN LEVEL: 0
ITLB AVERAGE MISS LATENCY: 18.1703 cycles
ITLB RQ	ACCESS:    9060747	FORWARD:          0	MERGED:    1150962	TO_CACHE:    7909785

DTLB TOTAL     ACCESS:   10296232  HIT:    9958914  MISS:     337318  HIT %:    96.7239  MISS %:    3.27613   MPKI: 6.74636
DTLB LOAD TRANSLATION ACCESS:   10296232  HIT:    9958914  MISS:     337318  HIT %:    96.7239  MISS %:    3.27613   MPKI: 6.74636
DTLB PREFETCH  REQUESTED:          0  ISSUED:          0  USEFUL:          0  USELESS:          0
DTLB USEFUL LOAD PREFETCHES:          0 PREFETCH ISSUED TO LOWER LEVEL:          0  ACCURACY: -nan
DTLB TIMELY PREFETCHES:          0 LATE PREFETCHES: 0 DROPPED PREFETCHES: 0
DTLB PREFETCHES SAME FILL-ORIGIN LEVEL: 0 DIFFERENT FILL-ORIGIN LEVEL: 0
DTLB AVERAGE MISS LATENCY: 13.6401 cycles
DTLB RQ	ACCESS:   11390674	FORWARD:          0	MERGED:    1067950	TO_CACHE:   10322724

STLB TOTAL     ACCESS:    2985343  HIT:    2729786  MISS:     255557  HIT %:    91.4396  MISS %:    8.56039   MPKI: 5.11114
STLB LOAD TRANSLATION ACCESS:     371227  HIT:     342637  MISS:      28590  HIT %:    92.2985  MISS %:    7.70149   MPKI: 0.5718
STLB TRANSLATION FROM L1D PREFETCHER ACCESS:    2614116  HIT:    2387149  MISS:     226967  HIT %:    91.3176  MISS %:    8.68236   MPKI: 4.53934
STLB PREFETCH  REQUESTED:          0  ISSUED:          0  USEFUL:     226514  USELESS:        452
STLB USEFUL LOAD PREFETCHES:     226514 PREFETCH ISSUED TO LOWER LEVEL:          0  ACCURACY: inf
STLB TIMELY PREFETCHES:     226514 LATE PREFETCHES: 41 DROPPED PREFETCHES: 0
STLB PREFETCHES SAME FILL-ORIGIN LEVEL: 0 DIFFERENT FILL-ORIGIN LEVEL: 0
STLB AVERAGE MISS LATENCY: 111.12 cycles
STLB RQ	ACCESS:    3602515	FORWARD:          0	MERGED:     614765	TO_CACHE:    2987750

STLB Hit, L1D data hit: 0
STLB Hit, L2C data hit: 0
STLB Hit, LLC data hit: 0
STLB Hit, LLC data miss: 0
STLB STLB hints to L2: 0
L1D TOTAL     ACCESS:   14427536  HIT:   12346229  MISS:    2081307  HIT %:    85.5741  MISS %:    14.4259   MPKI: 41.6261
L1D LOAD      ACCESS:    8974789  HIT:    8490750  MISS:     484039  HIT %:    94.6067  MISS %:    5.39332   MPKI: 9.68078
L1D RFO       ACCESS:    2334227  HIT:    2312400  MISS:      21827  HIT %:    99.0649  MISS %:   0.935085   MPKI: 0.43654
L1D PREFETCH  ACCESS:    3118520  HIT:    1543079  MISS:    1575441  HIT %:    49.4811  MISS %:    50.5189   MPKI: 31.5088
AGUS PREFETCH L1 MISS: 0
L1D PREFETCH  REQUESTED:    7566608  ISSUED:    6462627  USEFUL:     867268  USELESS:     708174
L1D USEFUL LOAD PREFETCHES:     867268 PREFETCH ISSUED TO LOWER LEVEL:    1605094  ACCURACY: 54.0322
L1D TIMELY PREFETCHES:     867268 LATE PREFETCHES: 29151 DROPPED PREFETCHES: 0
L1D PREFETCHES SAME FILL-ORIGIN LEVEL: 1605094 DIFFERENT FILL-ORIGIN LEVEL: 0
L1D AVERAGE MISS LATENCY: 178.062 cycles
L1D RQ	ACCESS:   14679221	FORWARD:          0	MERGED:    5623662	TO_CACHE:    8995887
L1D WQ	ACCESS:    2425925	FORWARD:      59676	MERGED:      31138	TO_CACHE:    2394787
L1D PQ	ACCESS:    3231339	FORWARD:          0	MERGED:         47	TO_CACHE:    3231288

L1D UNIQUE REGIONS ACCESSED: 0
L1D REGIONS CONFLICTS: 0
L1D Cross Page Prefetch Requests: 3699450
L1D Same Page Prefetch Requests: 2846934
L1D ROI Sum of L1D PQ occupancy: 130583922
L1D PREFETCHES PUSHED FROM L2C: 0
L1I TOTAL     ACCESS:    9009195  HIT:    8833166  MISS:     176029  HIT %:    98.0461  MISS %:    1.95388   MPKI: 3.52058
L1I LOAD      ACCESS:    9009195  HIT:    8833166  MISS:     176029  HIT %:    98.0461  MISS %:    1.95388   MPKI: 3.52058
L1I PREFETCH  REQUESTED:          0  ISSUED:          0  USEFUL:          0  USELESS:          0
L1I USEFUL LOAD PREFETCHES:          0 PREFETCH ISSUED TO LOWER LEVEL:          0  ACCURACY: -nan
L1I TIMELY PREFETCHES:          0 LATE PREFETCHES: 0 DROPPED PREFETCHES: 0
L1I PREFETCHES SAME FILL-ORIGIN LEVEL: 0 DIFFERENT FILL-ORIGIN LEVEL: 0
L1I AVERAGE MISS LATENCY: 39.9464 cycles
L1I RQ	ACCESS:   15173016	FORWARD:          0	MERGED:    6112269	TO_CACHE:    9060747

BTB TOTAL     ACCESS:    8240388  HIT:    8162326  MISS:      78062  HIT %:    99.0527  MISS %:    0.94731   MPKI: 1.56124
BTB BRANCH_DIRECT_JUMP	ACCESS:     125745  HIT:     125105  MISS:        640
BTB BRANCH_INDIRECT	ACCESS:      22046  HIT:       8847  MISS:      13199
BTB BRANCH_CONDITIONAL	ACCESS:    6916737  HIT:    6913889  MISS:       2848
BTB BRANCH_DIRECT_CALL	ACCESS:     323606  HIT:     322531  MISS:       1075
BTB BRANCH_INDIRECT_CALL	ACCESS:     264324  HIT:     261288  MISS:       3036
BTB BRANCH_RETURN	ACCESS:     587930  HIT:     530666  MISS:      57264
BTB BRANCH_OTHER ACCESS:          0  HIT:          0  MISS:          0

L2C TOTAL     ACCESS:    2558070  HIT:     563912  MISS:    1994158  HIT %:    22.0444  MISS %:    77.9556   MPKI: 39.8832
L2C LOAD      ACCESS:     630916  HIT:     203275  MISS:     427641  HIT %:     32.219  MISS %:     67.781   MPKI: 8.55282
L2C DATA LOAD MPKI: 7.7547
L2C INSTRUCTION LOAD MPKI: 0.79812
L2C RFO       ACCESS:      21313  HIT:       8360  MISS:      12953  HIT %:    39.2249  MISS %:    60.7751   MPKI: 0.25906
L2C PREFETCH  ACCESS:    1605093  HIT:     113609  MISS:    1491484  HIT %:    7.07803  MISS %:     92.922   MPKI: 29.8297
AGUS PREFETCH L1 MISS: 0
L2C DATA PREFETCH MPKI: 29.8297
L2C INSTRUCTION PREFETCH MPKI: 0
L2C WRITEBACK ACCESS:      43990  HIT:      43773  MISS:        217  HIT %:    99.5067  MISS %:   0.493294   MPKI: 0.00434
L2C LOAD TRANSLATION ACCESS:      28856  HIT:      25697  MISS:       3159  HIT %:    89.0525  MISS %:    10.9475   MPKI: 0.06318
L2C TRANSLATION FROM L1D PREFETCHER ACCESS:     227902  HIT:     169198  MISS:      58704  HIT %:    74.2416  MISS %:    25.7584   MPKI: 1.17408
L2C PREFETCH  REQUESTED:          0  ISSUED:          0  USEFUL:      68776  USELESS:    1481592
L2C USEFUL LOAD PREFETCHES:      68776 PREFETCH ISSUED TO LOWER LEVEL:    1491484  ACCURACY: 4.61125
L2C TIMELY PREFETCHES:      68776 LATE PREFETCHES: 0 DROPPED PREFETCHES: 0
L2C PREFETCHES SAME FILL-ORIGIN LEVEL: 0 DIFFERENT FILL-ORIGIN LEVEL: 0
L2C AVERAGE MISS LATENCY: 178.704 cycles
L2C RQ	ACCESS:     909000	FORWARD:          0	MERGED:          0	TO_CACHE:     908987
L2C WQ	ACCESS:      43990	FORWARD:         14	MERGED:          0	TO_CACHE:      43990
L2C PQ	ACCESS:    1605094	FORWARD:          0	MERGED:          0	TO_CACHE:    1605093

L2C Instructions Evicting Data 37975
L2C Translations Evicting Data 59082
L2C Data Evicting Data 1795123
L2C Instructions Evicting Instructions 946
L2C Translations Evicting Instructions 974
L2C Data Evicting Instructions 38003
L2C Instructions Evicting Translations 985
L2C Translations Evicting Translations 1807
L2C Data Evicting Translations 59046
L2C Dense regions hint from L2: 0
PSCL5 TOTAL     ACCESS:     255557  HIT:     255557  MISS:          0  HIT %:        100  MISS %:          0   MPKI: 0
PSCL5 LOAD TRANSLATION ACCESS:      28549  HIT:      28549  MISS:          0  HIT %:        100  MISS %:          0   MPKI: 0
PSCL5 TRANSLATION FROM L1D PREFETCHER ACCESS:     227008  HIT:     227008  MISS:          0  HIT %:        100  MISS %:          0   MPKI: 0
PSCL5 PREFETCH  REQUESTED:          0  ISSUED:          0  USEFUL:          0  USELESS:          0
PSCL5 USEFUL LOAD PREFETCHES:          0 PREFETCH ISSUED TO LOWER LEVEL:          0  ACCURACY: -nan
PSCL5 TIMELY PREFETCHES:          0 LATE PREFETCHES: 0 DROPPED PREFETCHES: 0
PSCL5 PREFETCHES SAME FILL-ORIGIN LEVEL: 0 DIFFERENT FILL-ORIGIN LEVEL: 0

PSCL4 TOTAL     ACCESS:     255557  HIT:     255557  MISS:          0  HIT %:        100  MISS %:          0   MPKI: 0
PSCL4 LOAD TRANSLATION ACCESS:      28549  HIT:      28549  MISS:          0  HIT %:        100  MISS %:          0   MPKI: 0
PSCL4 TRANSLATION FROM L1D PREFETCHER ACCESS:     227008  HIT:     227008  MISS:          0  HIT %:        100  MISS %:          0   MPKI: 0
PSCL4 PREFETCH  REQUESTED:          0  ISSUED:          0  USEFUL:          0  USELESS:          0
PSCL4 USEFUL LOAD PREFETCHES:          0 PREFETCH ISSUED TO LOWER LEVEL:          0  ACCURACY: -nan
PSCL4 TIMELY PREFETCHES:          0 LATE PREFETCHES: 0 DROPPED PREFETCHES: 0
PSCL4 PREFETCHES SAME FILL-ORIGIN LEVEL: 0 DIFFERENT FILL-ORIGIN LEVEL: 0

PSCL3 TOTAL     ACCESS:     255557  HIT:     255557  MISS:          0  HIT %:        100  MISS %:          0   MPKI: 0
PSCL3 LOAD TRANSLATION ACCESS:      28549  HIT:      28549  MISS:          0  HIT %:        100  MISS %:          0   MPKI: 0
PSCL3 TRANSLATION FROM L1D PREFETCHER ACCESS:     227008  HIT:     227008  MISS:          0  HIT %:        100  MISS %:          0   MPKI: 0
PSCL3 PREFETCH  REQUESTED:          0  ISSUED:          0  USEFUL:          0  USELESS:          0
PSCL3 USEFUL LOAD PREFETCHES:          0 PREFETCH ISSUED TO LOWER LEVEL:          0  ACCURACY: -nan
PSCL3 TIMELY PREFETCHES:          0 LATE PREFETCHES: 0 DROPPED PREFETCHES: 0
PSCL3 PREFETCHES SAME FILL-ORIGIN LEVEL: 0 DIFFERENT FILL-ORIGIN LEVEL: 0

PSCL2 TOTAL     ACCESS:     255557  HIT:     254356  MISS:       1201  HIT %:      99.53  MISS %:   0.469954   MPKI: 0.02402
PSCL2 LOAD TRANSLATION ACCESS:      29443  HIT:      28242  MISS:       1201  HIT %:    95.9209  MISS %:    4.07907   MPKI: 0.02402
PSCL2 TRANSLATION FROM L1D PREFETCHER ACCESS:     226114  HIT:     226114  MISS:          0  HIT %:        100  MISS %:          0   MPKI: 0
PSCL2 PREFETCH  REQUESTED:          0  ISSUED:          0  USEFUL:          0  USELESS:          0
PSCL2 USEFUL LOAD PREFETCHES:          0 PREFETCH ISSUED TO LOWER LEVEL:          0  ACCURACY: -nan
PSCL2 TIMELY PREFETCHES:          0 LATE PREFETCHES: 0 DROPPED PREFETCHES: 0
PSCL2 PREFETCHES SAME FILL-ORIGIN LEVEL: 0 DIFFERENT FILL-ORIGIN LEVEL: 0

LLC TOTAL     ACCESS:    2017307  HIT:     152310  MISS:    1864997  HIT %:    7.55016  MISS %:    92.4498   MPKI: 37.2999
LLC LOAD      ACCESS:     427641  HIT:      42185  MISS:     385456  HIT %:    9.86458  MISS %:    90.1354   MPKI: 7.70912
LLC RFO       ACCESS:      12953  HIT:       1776  MISS:      11177  HIT %:    13.7111  MISS %:    86.2889   MPKI: 0.22354
LLC PREFETCH  ACCESS:    1491484  HIT:      82353  MISS:    1409131  HIT %:    5.52155  MISS %:    94.4785   MPKI: 28.1826
AGUS PREFETCH L1 MISS: 0
LLC WRITEBACK ACCESS:      23366  HIT:      23241  MISS:        125  HIT %:     99.465  MISS %:   0.534965   MPKI: 0.0025
LLC LOAD TRANSLATION ACCESS:       3159  HIT:        739  MISS:       2420  HIT %:    23.3935  MISS %:    76.6065   MPKI: 0.0484
LLC TRANSLATION FROM L1D PREFETCHER ACCESS:      58704  HIT:       2016  MISS:      56688  HIT %:    3.43418  MISS %:    96.5658   MPKI: 1.13376
LLC PREFETCH  REQUESTED:          0  ISSUED:          0  USEFUL:       8896  USELESS:    1457903
LLC USEFUL LOAD PREFETCHES:       8896 PREFETCH ISSUED TO LOWER LEVEL:    1409131  ACCURACY: 0.631311
LLC TIMELY PREFETCHES:       8896 LATE PREFETCHES: 0 DROPPED PREFETCHES: 0
LLC PREFETCHES SAME FILL-ORIGIN LEVEL: 0 DIFFERENT FILL-ORIGIN LEVEL: 0
LLC AVERAGE MISS LATENCY: 159.005 cycles
LLC RQ	ACCESS:     502457	FORWARD:          0	MERGED:          0	TO_CACHE:     502457
LLC WQ	ACCESS:      23366	FORWARD:          0	MERGED:          0	TO_CACHE:      23366
LLC PQ	ACCESS:    1491484	FORWARD:          0	MERGED:          0	TO_CACHE:    1491484

LLC Dense regions hint to LLC: 0

RAW hits: 62840
Loads Generated: 14742061
Loads sent to L1D: 14679221
Stores Generated: 2425922
Stores sent to L1D: 2425925
Major fault: 0 Minor fault: 11043
Allocated PAGES: 11043

stream: 
stream:times selected: 4105956
stream:pref_reqs: 3992701
stream:pref_reqs_filtered_out: 1440197
stream:pref_filled: 1199688
stream:pref_useful: 149268
stream:pref_late: 35570
stream:misses: 23228
stream:misses_by_poll: 0

CS: 
CS:times selected: 110875
CS:pref_reqs: 316037
CS:pref_reqs_filtered_out: 106262
CS:pref_filled: 91530
CS:pref_useful: 65175
CS:pref_late: 775
CS:misses: 3494
CS:misses_by_poll: 154

CPLX: 
CPLX:times selected: 3957431
CPLX:pref_reqs: 612386
CPLX:pref_reqs_filtered_out: 245053
CPLX:pref_filled: 229249
CPLX:pref_useful: 16471
CPLX:pref_late: 711
CPLX:misses: 65730
CPLX:misses_by_poll: 476

ISB: 
ISB:total access:12843494
ISB:times selected:3550136
ISB:canary counter:0
ISB:pref_reqs: 11905919
ISB:pref_reqs_filtered_out: 5210567
ISB:pref_filled: 1634054
ISB:pref_useful: 1571929
ISB:pref_late: 2223
ISB:misses: 725632
ISB:misses_by_poll: 9550
ISB:Stream end: 1880913
ISB:No Prediction: 555823 4.32766
ISB:No translation: 1898518046 14781.9
ISB:Predictions: 3848229 29.9625

NL_L1: 
NL:times selected: 18270
NL:pref_reqs: 18270
NL:pref_reqs_filtered_out: 4372
NL:pref_filled: 5701
NL:pref_useful: 621
NL:pref_late: 234
NL:misses: 4435
NL:misses_by_poll: 0

Coverage: 64.1799
total selections: 11742668
total_filled: 1575441
total_useful: 867268
total_late: 40287
total_polluted: 10180
total_misses_after_warmup: 505136
conflicts: 1940091

test: 0
Prefetcher final stats
Training Unit Size: 196
Addr table size: 53166 53175
Stream divergence: 190072 1.47991
Stream divergence -- new stream: 0
--------------------------Training unit table ------------------------

DRAM Statistics
 CHANNEL 0
 RQ ROW_BUFFER_HIT:     823242  ROW_BUFFER_MISS:    1041630
 DBUS_CONGESTED:        278
 WQ ROW_BUFFER_HIT:       1994  ROW_BUFFER_MISS:      16393  FULL:          0

 AVG_CONGESTED_CYCLE: 4
 All warmup complete: 2
Channel 0 Bank busy for read cycles: 0
Channel 0 Bank busy for write cycles: 0
Channel 0
Rank 0
0banks busy for read cycles: 67725430
0banks busy for write cycles: 12114
1banks busy for read cycles: 25531975
1banks busy for write cycles: 2213044
2banks busy for read cycles: 18170091
2banks busy for write cycles: 566715
3banks busy for read cycles: 13586493
3banks busy for write cycles: 179569
4banks busy for read cycles: 9848653
4banks busy for write cycles: 60474
5banks busy for read cycles: 6155707
5banks busy for write cycles: 23834
6banks busy for read cycles: 2905853
6banks busy for write cycles: 7345
7banks busy for read cycles: 873169
7banks busy for write cycles: 1547
8banks busy for read cycles: 132526
8banks busy for write cycles: 318

CPU 0 Branch Prediction Accuracy: 94.9771% MPKI: 13.0224 Average ROB Occupancy at Mispredict: 41.9105
Branch types
NOT_BRANCH: 37037111 74.0742%
BRANCH_DIRECT_JUMP: 125745 0.25149%
BRANCH_INDIRECT: 22046 0.044092%
BRANCH_CONDITIONAL: 11639280 23.2786%
BRANCH_DIRECT_CALL: 323606 0.647212%
BRANCH_INDIRECT_CALL: 264324 0.528648%
BRANCH_RETURN: 587930 1.17586%
BRANCH_OTHER: 0 0%

DRAM PAGES: 1048576
Allocated PAGES: 11043
