
*** ChampSim Multicore Out-of-Order Simulator ***

Warmup Instructions: 50000000
Simulation Instructions: 50000000
Number of CPUs: 1
LLC sets: 2048
LLC ways: 16
Off-chip DRAM Size: 4096 MB Channels: 1 Width: 64-bit Data Rate: 6400 MT/s
CPU 0 runs traces/SPEC-CPU2017/623.xalancbmk_s-10B.champsimtrace.xz
.xz
CPU 0 Bimodal branch predictor
BTB has LRU replacement policy
ITLB has LRU replacement policy
DTLB has LRU replacement policy
STLB has LRU replacement policy
L1I has LRU replacement policy
L1D has LRU replacement policy
Ideal ISB Prefetching
L2C has LRU replacement policy
LLC has LRU replacement policy
Heartbeat CPU 0 instructions: 10000001 cycles: 3189696 heartbeat IPC: 3.1351 cumulative IPC: 3.1351 (Simulation time: 0 hr 0 min 38 sec) 
Heartbeat CPU 0 instructions: 20000000 cycles: 6368195 heartbeat IPC: 3.14614 cumulative IPC: 3.14061 (Simulation time: 0 hr 1 min 18 sec) 
Heartbeat CPU 0 instructions: 30000001 cycles: 9563651 heartbeat IPC: 3.12944 cumulative IPC: 3.13688 (Simulation time: 0 hr 2 min 2 sec) 
Heartbeat CPU 0 instructions: 40000000 cycles: 12764436 heartbeat IPC: 3.12423 cumulative IPC: 3.13371 (Simulation time: 0 hr 2 min 48 sec) 
Heartbeat CPU 0 instructions: 50000000 cycles: 15996578 heartbeat IPC: 3.09392 cumulative IPC: 3.12567 (Simulation time: 0 hr 3 min 36 sec) 

Warmup complete CPU 0 instructions: 50000004 cycles: 15996579 (Simulation time: 0 hr 3 min 36 sec) 

Heartbeat CPU 0 instructions: 60000000 cycles: 48847793 heartbeat IPC: 0.304403 cumulative IPC: 0.304403 (Simulation time: 0 hr 4 min 57 sec) 
Heartbeat CPU 0 instructions: 70000000 cycles: 82834422 heartbeat IPC: 0.294233 cumulative IPC: 0.299232 (Simulation time: 0 hr 6 min 27 sec) 
Heartbeat CPU 0 instructions: 80000000 cycles: 117538887 heartbeat IPC: 0.288147 cumulative IPC: 0.295443 (Simulation time: 0 hr 7 min 55 sec) 
Heartbeat CPU 0 instructions: 90000000 cycles: 150601550 heartbeat IPC: 0.302456 cumulative IPC: 0.297166 (Simulation time: 0 hr 9 min 20 sec) 
Heartbeat CPU 0 instructions: 100000000 cycles: 185881427 heartbeat IPC: 0.283448 cumulative IPC: 0.294317 (Simulation time: 0 hr 10 min 31 sec) 
Finished CPU 0 instructions: 50000003 cycles: 169884882 cumulative IPC: 0.294317 (Simulation time: 0 hr 10 min 31 sec) 

ChampSim completed all CPUs

Region of Interest Statistics

CPU 0 cumulative IPC: 0.294317 instructions: 50000003 cycles: 169884882
ITLB TOTAL     ACCESS:    7900614  HIT:    7866705  MISS:      33909  HIT %:    99.5708  MISS %:   0.429194   MPKI: 0.67818
ITLB LOAD TRANSLATION ACCESS:    7900614  HIT:    7866705  MISS:      33909  HIT %:    99.5708  MISS %:   0.429194   MPKI: 0.67818
ITLB PREFETCH  REQUESTED:          0  ISSUED:          0  USEFUL:          0  USELESS:          0
ITLB USEFUL LOAD PREFETCHES:          0 PREFETCH ISSUED TO LOWER LEVEL:          0  ACCURACY: -nan
ITLB TIMELY PREFETCHES:          0 LATE PREFETCHES: 0 DROPPED PREFETCHES: 0
ITLB PREFETCHES SAME FILL-ORIGIN LEVEL: 0 DIFFERENT FILL-ORIGIN LEVEL: 0
ITLB AVERAGE MISS LATENCY: 18.0674 cycles
ITLB RQ	ACCESS:    9060643	FORWARD:          0	MERGED:    1150941	TO_CACHE:    7909702

DTLB TOTAL     ACCESS:   10289575  HIT:    9952255  MISS:     337320  HIT %:    96.7217  MISS %:    3.27827   MPKI: 6.7464
DTLB LOAD TRANSLATION ACCESS:   10289575  HIT:    9952255  MISS:     337320  HIT %:    96.7217  MISS %:    3.27827   MPKI: 6.7464
DTLB PREFETCH  REQUESTED:          0  ISSUED:          0  USEFUL:          0  USELESS:          0
DTLB USEFUL LOAD PREFETCHES:          0 PREFETCH ISSUED TO LOWER LEVEL:          0  ACCURACY: -nan
DTLB TIMELY PREFETCHES:          0 LATE PREFETCHES: 0 DROPPED PREFETCHES: 0
DTLB PREFETCHES SAME FILL-ORIGIN LEVEL: 0 DIFFERENT FILL-ORIGIN LEVEL: 0
DTLB AVERAGE MISS LATENCY: 68.8164 cycles
DTLB RQ	ACCESS:   11399586	FORWARD:          0	MERGED:    1051151	TO_CACHE:   10348435

STLB TOTAL     ACCESS:     371229  HIT:     116652  MISS:     254577  HIT %:    31.4232  MISS %:    68.5768   MPKI: 5.09154
STLB LOAD TRANSLATION ACCESS:     371229  HIT:     116652  MISS:     254577  HIT %:    31.4232  MISS %:    68.5768   MPKI: 5.09154
STLB PREFETCH  REQUESTED:          0  ISSUED:          0  USEFUL:          0  USELESS:          0
STLB USEFUL LOAD PREFETCHES:          0 PREFETCH ISSUED TO LOWER LEVEL:          0  ACCURACY: -nan
STLB TIMELY PREFETCHES:          0 LATE PREFETCHES: 0 DROPPED PREFETCHES: 0
STLB PREFETCHES SAME FILL-ORIGIN LEVEL: 0 DIFFERENT FILL-ORIGIN LEVEL: 0
STLB AVERAGE MISS LATENCY: 80.4213 cycles
STLB RQ	ACCESS:     371229	FORWARD:          0	MERGED:          0	TO_CACHE:     371229

STLB Hit, L1D data hit: 0
STLB Hit, L2C data hit: 0
STLB Hit, LLC data hit: 0
STLB Hit, LLC data miss: 0
STLB STLB hints to L2: 0
L1D TOTAL     ACCESS:   11290213  HIT:    9934860  MISS:    1355353  HIT %:    87.9953  MISS %:    12.0047   MPKI: 27.1071
L1D LOAD      ACCESS:    8957388  HIT:    7622122  MISS:    1335266  HIT %:    85.0931  MISS %:    14.9069   MPKI: 26.7053
L1D RFO       ACCESS:    2332825  HIT:    2312738  MISS:      20087  HIT %:    99.1389  MISS %:   0.861059   MPKI: 0.40174
L1D PREFETCH  REQUESTED:          0  ISSUED:          0  USEFUL:          0  USELESS:          0
L1D USEFUL LOAD PREFETCHES:          0 PREFETCH ISSUED TO LOWER LEVEL:          0  ACCURACY: -nan
L1D TIMELY PREFETCHES:          0 LATE PREFETCHES: 0 DROPPED PREFETCHES: 0
L1D PREFETCHES SAME FILL-ORIGIN LEVEL: 0 DIFFERENT FILL-ORIGIN LEVEL: 0
L1D AVERAGE MISS LATENCY: 71.1212 cycles
L1D RQ	ACCESS:   14679836	FORWARD:          0	MERGED:    5612548	TO_CACHE:    9007430
L1D WQ	ACCESS:    2425925	FORWARD:      59858	MERGED:      33769	TO_CACHE:    2392156

L1D UNIQUE REGIONS ACCESSED: 0
L1D REGIONS CONFLICTS: 0
L1D Cross Page Prefetch Requests: 0
L1D Same Page Prefetch Requests: 0
L1D ROI Sum of L1D PQ occupancy: 0
L1D PREFETCHES PUSHED FROM L2C: 0
L1I TOTAL     ACCESS:    9009116  HIT:    8833075  MISS:     176041  HIT %:     98.046  MISS %:    1.95403   MPKI: 3.52082
L1I LOAD      ACCESS:    9009116  HIT:    8833075  MISS:     176041  HIT %:     98.046  MISS %:    1.95403   MPKI: 3.52082
L1I PREFETCH  REQUESTED:          0  ISSUED:          0  USEFUL:          0  USELESS:          0
L1I USEFUL LOAD PREFETCHES:          0 PREFETCH ISSUED TO LOWER LEVEL:          0  ACCURACY: -nan
L1I TIMELY PREFETCHES:          0 LATE PREFETCHES: 0 DROPPED PREFETCHES: 0
L1I PREFETCHES SAME FILL-ORIGIN LEVEL: 0 DIFFERENT FILL-ORIGIN LEVEL: 0
L1I AVERAGE MISS LATENCY: 38.5054 cycles
L1I RQ	ACCESS:   15173035	FORWARD:          0	MERGED:    6112392	TO_CACHE:    9060643

BTB TOTAL     ACCESS:    8240388  HIT:    8162326  MISS:      78062  HIT %:    99.0527  MISS %:    0.94731   MPKI: 1.56124
BTB BRANCH_DIRECT_JUMP	ACCESS:     125745  HIT:     125105  MISS:        640
BTB BRANCH_INDIRECT	ACCESS:      22046  HIT:       8847  MISS:      13199
BTB BRANCH_CONDITIONAL	ACCESS:    6916737  HIT:    6913889  MISS:       2848
BTB BRANCH_DIRECT_CALL	ACCESS:     323606  HIT:     322531  MISS:       1075
BTB BRANCH_INDIRECT_CALL	ACCESS:     264324  HIT:     261288  MISS:       3036
BTB BRANCH_RETURN	ACCESS:     587930  HIT:     530666  MISS:      57264
BTB BRANCH_OTHER ACCESS:          0  HIT:          0  MISS:          0

L2C TOTAL     ACCESS:    2683209  HIT:    1338619  MISS:    1344590  HIT %:    49.8887  MISS %:    50.1113   MPKI: 26.8918
L2C LOAD      ACCESS:    1511307  HIT:    1008736  MISS:     502571  HIT %:    66.7459  MISS %:    33.2541   MPKI: 10.0514
L2C DATA LOAD MPKI: 9.35396
L2C INSTRUCTION LOAD MPKI: 0.69746
L2C RFO       ACCESS:      20084  HIT:       6466  MISS:      13618  HIT %:    32.1948  MISS %:    67.8052   MPKI: 0.27236
L2C PREFETCH  ACCESS:     858378  HIT:      90788  MISS:     767590  HIT %:    10.5767  MISS %:    89.4233   MPKI: 15.3518
AGUS PREFETCH L1 MISS: 0
L2C DATA PREFETCH MPKI: 15.3518
L2C INSTRUCTION PREFETCH MPKI: 0
L2C WRITEBACK ACCESS:      37682  HIT:      37527  MISS:        155  HIT %:    99.5887  MISS %:   0.411337   MPKI: 0.0031
L2C LOAD TRANSLATION ACCESS:     255758  HIT:     195102  MISS:      60656  HIT %:    76.2838  MISS %:    23.7162   MPKI: 1.21312
L2C PREFETCH  REQUESTED:     861987  ISSUED:     861046  USEFUL:     754642  USELESS:      12943
L2C USEFUL LOAD PREFETCHES:     754642 PREFETCH ISSUED TO LOWER LEVEL:     767914  ACCURACY: 98.2717
L2C TIMELY PREFETCHES:     754642 LATE PREFETCHES: 324 DROPPED PREFETCHES: 0
L2C PREFETCHES SAME FILL-ORIGIN LEVEL: 767914 DIFFERENT FILL-ORIGIN LEVEL: 0
L2C AVERAGE MISS LATENCY: 194.271 cycles
L2C RQ	ACCESS:    1787152	FORWARD:          0	MERGED:          0	TO_CACHE:    1787149
L2C WQ	ACCESS:      37682	FORWARD:          3	MERGED:          0	TO_CACHE:      37682
L2C PQ	ACCESS:     861046	FORWARD:          0	MERGED:        812	TO_CACHE:     860234

L2C Instructions Evicting Data 33018
L2C Translations Evicting Data 56532
L2C Data Evicting Data 1159334
L2C Instructions Evicting Instructions 880
L2C Translations Evicting Instructions 1060
L2C Data Evicting Instructions 32952
L2C Instructions Evicting Translations 975
L2C Translations Evicting Translations 3064
L2C Data Evicting Translations 56620
L2C Dense regions hint from L2: 0
PSCL5 TOTAL     ACCESS:     254577  HIT:     254577  MISS:          0  HIT %:        100  MISS %:          0   MPKI: 0
PSCL5 LOAD TRANSLATION ACCESS:     254577  HIT:     254577  MISS:          0  HIT %:        100  MISS %:          0   MPKI: 0
PSCL5 PREFETCH  REQUESTED:          0  ISSUED:          0  USEFUL:          0  USELESS:          0
PSCL5 USEFUL LOAD PREFETCHES:          0 PREFETCH ISSUED TO LOWER LEVEL:          0  ACCURACY: -nan
PSCL5 TIMELY PREFETCHES:          0 LATE PREFETCHES: 0 DROPPED PREFETCHES: 0
PSCL5 PREFETCHES SAME FILL-ORIGIN LEVEL: 0 DIFFERENT FILL-ORIGIN LEVEL: 0

PSCL4 TOTAL     ACCESS:     254577  HIT:     254577  MISS:          0  HIT %:        100  MISS %:          0   MPKI: 0
PSCL4 LOAD TRANSLATION ACCESS:     254577  HIT:     254577  MISS:          0  HIT %:        100  MISS %:          0   MPKI: 0
PSCL4 PREFETCH  REQUESTED:          0  ISSUED:          0  USEFUL:          0  USELESS:          0
PSCL4 USEFUL LOAD PREFETCHES:          0 PREFETCH ISSUED TO LOWER LEVEL:          0  ACCURACY: -nan
PSCL4 TIMELY PREFETCHES:          0 LATE PREFETCHES: 0 DROPPED PREFETCHES: 0
PSCL4 PREFETCHES SAME FILL-ORIGIN LEVEL: 0 DIFFERENT FILL-ORIGIN LEVEL: 0

PSCL3 TOTAL     ACCESS:     254577  HIT:     254577  MISS:          0  HIT %:        100  MISS %:          0   MPKI: 0
PSCL3 LOAD TRANSLATION ACCESS:     254577  HIT:     254577  MISS:          0  HIT %:        100  MISS %:          0   MPKI: 0
PSCL3 PREFETCH  REQUESTED:          0  ISSUED:          0  USEFUL:          0  USELESS:          0
PSCL3 USEFUL LOAD PREFETCHES:          0 PREFETCH ISSUED TO LOWER LEVEL:          0  ACCURACY: -nan
PSCL3 TIMELY PREFETCHES:          0 LATE PREFETCHES: 0 DROPPED PREFETCHES: 0
PSCL3 PREFETCHES SAME FILL-ORIGIN LEVEL: 0 DIFFERENT FILL-ORIGIN LEVEL: 0

PSCL2 TOTAL     ACCESS:     254577  HIT:     253396  MISS:       1181  HIT %:    99.5361  MISS %:   0.463907   MPKI: 0.02362
PSCL2 LOAD TRANSLATION ACCESS:     254577  HIT:     253396  MISS:       1181  HIT %:    99.5361  MISS %:   0.463907   MPKI: 0.02362
PSCL2 PREFETCH  REQUESTED:          0  ISSUED:          0  USEFUL:          0  USELESS:          0
PSCL2 USEFUL LOAD PREFETCHES:          0 PREFETCH ISSUED TO LOWER LEVEL:          0  ACCURACY: -nan
PSCL2 TIMELY PREFETCHES:          0 LATE PREFETCHES: 0 DROPPED PREFETCHES: 0
PSCL2 PREFETCHES SAME FILL-ORIGIN LEVEL: 0 DIFFERENT FILL-ORIGIN LEVEL: 0

LLC TOTAL     ACCESS:    1366237  HIT:     108641  MISS:    1257596  HIT %:    7.95184  MISS %:    92.0482   MPKI: 25.1519
LLC LOAD      ACCESS:     502247  HIT:      45169  MISS:     457078  HIT %:    8.99338  MISS %:    91.0066   MPKI: 9.14156
LLC RFO       ACCESS:      13618  HIT:       1449  MISS:      12169  HIT %:    10.6403  MISS %:    89.3597   MPKI: 0.24338
LLC PREFETCH  ACCESS:     767914  HIT:      37870  MISS:     730044  HIT %:    4.93154  MISS %:    95.0685   MPKI: 14.6009
AGUS PREFETCH L1 MISS: 0
LLC WRITEBACK ACCESS:      21802  HIT:      21703  MISS:         99  HIT %:    99.5459  MISS %:   0.454087   MPKI: 0.00198
LLC LOAD TRANSLATION ACCESS:      60656  HIT:       2450  MISS:      58206  HIT %:    4.03917  MISS %:    95.9608   MPKI: 1.16412
LLC PREFETCH  REQUESTED:          0  ISSUED:          0  USEFUL:       9087  USELESS:     725711
LLC USEFUL LOAD PREFETCHES:       9087 PREFETCH ISSUED TO LOWER LEVEL:     730044  ACCURACY: 1.24472
LLC TIMELY PREFETCHES:       9087 LATE PREFETCHES: 0 DROPPED PREFETCHES: 0
LLC PREFETCHES SAME FILL-ORIGIN LEVEL: 0 DIFFERENT FILL-ORIGIN LEVEL: 0
LLC AVERAGE MISS LATENCY: 175.635 cycles
LLC RQ	ACCESS:     576521	FORWARD:          0	MERGED:          0	TO_CACHE:     576521
LLC WQ	ACCESS:      21802	FORWARD:          0	MERGED:          0	TO_CACHE:      21802
LLC PQ	ACCESS:     767914	FORWARD:          0	MERGED:          0	TO_CACHE:     767914

LLC Dense regions hint to LLC: 0

RAW hits: 62225
Loads Generated: 14742061
Loads sent to L1D: 14679836
Stores Generated: 2425922
Stores sent to L1D: 2425925
Major fault: 0 Minor fault: 11043
Allocated PAGES: 11043
Prefetcher final stats
Coverage: 60.025
Training Unit Size: 602
Addr table size: 59618 59636


Triggers: 767629
No Prediction: 147838 19.259
Stream end: 439739
No translation: 447051952 58238
Predictions: 1842344 240.004


Stream divergence: 226302 29.4806
Stream divergence -- new stream: 0

DRAM Statistics
 CHANNEL 0
 RQ ROW_BUFFER_HIT:     419602  ROW_BUFFER_MISS:     837895
 DBUS_CONGESTED:         52
 WQ ROW_BUFFER_HIT:       1728  ROW_BUFFER_MISS:      16403  FULL:          0

 AVG_CONGESTED_CYCLE: 4
 All warmup complete: 2
Channel 0 Bank busy for read cycles: 0
Channel 0 Bank busy for write cycles: 0
Channel 0
Rank 0
0banks busy for read cycles: 101476224
0banks busy for write cycles: 14813
1banks busy for read cycles: 30706150
1banks busy for write cycles: 2401936
2banks busy for read cycles: 14785325
2banks busy for write cycles: 350843
3banks busy for read cycles: 7820754
3banks busy for write cycles: 69555
4banks busy for read cycles: 4430105
4banks busy for write cycles: 14405
5banks busy for read cycles: 3569017
5banks busy for write cycles: 2154
6banks busy for read cycles: 2664773
6banks busy for write cycles: 638
7banks busy for read cycles: 1252721
7banks busy for write cycles: 0
8banks busy for read cycles: 325470
8banks busy for write cycles: 0

CPU 0 Branch Prediction Accuracy: 94.9771% MPKI: 13.0224 Average ROB Occupancy at Mispredict: 41.982
Branch types
NOT_BRANCH: 37037120 74.0742%
BRANCH_DIRECT_JUMP: 125745 0.25149%
BRANCH_INDIRECT: 22046 0.044092%
BRANCH_CONDITIONAL: 11639280 23.2786%
BRANCH_DIRECT_CALL: 323606 0.647212%
BRANCH_INDIRECT_CALL: 264324 0.528648%
BRANCH_RETURN: 587930 1.17586%
BRANCH_OTHER: 0 0%

DRAM PAGES: 1048576
Allocated PAGES: 11043
