
*** ChampSim Multicore Out-of-Order Simulator ***

Warmup Instructions: 50000000
Simulation Instructions: 50000000
Number of CPUs: 1
LLC sets: 2048
LLC ways: 16
Off-chip DRAM Size: 4096 MB Channels: 1 Width: 64-bit Data Rate: 6400 MT/s
CPU 0 runs ./traces/SPEC-CPU2017/400.perlbench-50B.champsimtrace.xz
.xz
CPU 0 Bimodal branch predictor
BTB has LRU replacement policy
ITLB has LRU replacement policy
DTLB has LRU replacement policy
STLB has LRU replacement policy
L1I has LRU replacement policy
L1D has LRU replacement policy
L2C has LRU replacement policy
LLC has LRU replacement policy
Heartbeat CPU 0 instructions: 10000002 cycles: 3307186 heartbeat IPC: 3.02372 cumulative IPC: 3.02372 (Simulation time: 0 hr 8 min 55 sec) 
Heartbeat CPU 0 instructions: 20000000 cycles: 6462335 heartbeat IPC: 3.16942 cumulative IPC: 3.09486 (Simulation time: 0 hr 16 min 36 sec) 
Heartbeat CPU 0 instructions: 30000003 cycles: 9583276 heartbeat IPC: 3.20416 cumulative IPC: 3.13045 (Simulation time: 0 hr 23 min 15 sec) 
Heartbeat CPU 0 instructions: 40000000 cycles: 12684859 heartbeat IPC: 3.22416 cumulative IPC: 3.15337 (Simulation time: 0 hr 31 min 30 sec) 
Heartbeat CPU 0 instructions: 50000003 cycles: 15870422 heartbeat IPC: 3.13916 cumulative IPC: 3.15052 (Simulation time: 0 hr 40 min 47 sec) 

Warmup complete CPU 0 instructions: 50000003 cycles: 15870422 (Simulation time: 0 hr 40 min 47 sec) 

Heartbeat CPU 0 instructions: 60000000 cycles: 41935429 heartbeat IPC: 0.383656 cumulative IPC: 0.383656 (Simulation time: 0 hr 47 min 24 sec) 
Heartbeat CPU 0 instructions: 70000000 cycles: 65547401 heartbeat IPC: 0.423514 cumulative IPC: 0.402601 (Simulation time: 0 hr 51 min 29 sec) 
Heartbeat CPU 0 instructions: 80000000 cycles: 91093472 heartbeat IPC: 0.39145 cumulative IPC: 0.398814 (Simulation time: 0 hr 55 min 58 sec) 
Heartbeat CPU 0 instructions: 90000000 cycles: 115104610 heartbeat IPC: 0.416473 cumulative IPC: 0.403087 (Simulation time: 0 hr 59 min 39 sec) 
Heartbeat CPU 0 instructions: 100000000 cycles: 140156576 heartbeat IPC: 0.39917 cumulative IPC: 0.402297 (Simulation time: 1 hr 3 min 54 sec) 
Finished CPU 0 instructions: 50000000 cycles: 124286171 cumulative IPC: 0.402297 (Simulation time: 1 hr 3 min 54 sec) 

ChampSim completed all CPUs

Region of Interest Statistics

CPU 0 cumulative IPC: 0.402297 instructions: 50000000 cycles: 124286171
ITLB TOTAL     ACCESS:    8754782  HIT:    8754782  MISS:          0  HIT %:        100  MISS %:          0   MPKI: 0
ITLB LOAD TRANSLATION ACCESS:    8754782  HIT:    8754782  MISS:          0  HIT %:        100  MISS %:          0   MPKI: 0
ITLB PREFETCH  REQUESTED:          0  ISSUED:          0  USEFUL:          0  USELESS:          0
ITLB USEFUL LOAD PREFETCHES:          0 PREFETCH ISSUED TO LOWER LEVEL:          0  ACCURACY: -nan
ITLB TIMELY PREFETCHES:          0 LATE PREFETCHES: 0 DROPPED PREFETCHES: 0
ITLB PREFETCHES SAME FILL-ORIGIN LEVEL: 0 DIFFERENT FILL-ORIGIN LEVEL: 0
ITLB AVERAGE MISS LATENCY: -nan cycles
ITLB RQ	ACCESS:   10248464	FORWARD:          0	MERGED:    1493683	TO_CACHE:    8754781

DTLB TOTAL     ACCESS:   13115518  HIT:   13111902  MISS:       3616  HIT %:    99.9724  MISS %:  0.0275704   MPKI: 0.07232
DTLB LOAD TRANSLATION ACCESS:   13115518  HIT:   13111902  MISS:       3616  HIT %:    99.9724  MISS %:  0.0275704   MPKI: 0.07232
DTLB PREFETCH  REQUESTED:          0  ISSUED:          0  USEFUL:          0  USELESS:          0
DTLB USEFUL LOAD PREFETCHES:          0 PREFETCH ISSUED TO LOWER LEVEL:          0  ACCURACY: -nan
DTLB TIMELY PREFETCHES:          0 LATE PREFETCHES: 0 DROPPED PREFETCHES: 0
DTLB PREFETCHES SAME FILL-ORIGIN LEVEL: 0 DIFFERENT FILL-ORIGIN LEVEL: 0
DTLB AVERAGE MISS LATENCY: 21.2771 cycles
DTLB RQ	ACCESS:   15452440	FORWARD:          0	MERGED:    2336732	TO_CACHE:   13115708

STLB TOTAL     ACCESS:      73124  HIT:      72837  MISS:        287  HIT %:    99.6075  MISS %:   0.392484   MPKI: 0.00574
STLB LOAD TRANSLATION ACCESS:       3616  HIT:       3329  MISS:        287  HIT %:    92.0631  MISS %:    7.93695   MPKI: 0.00574
STLB TRANSLATION FROM L1D PREFETCHER ACCESS:      69508  HIT:      69508  MISS:          0  HIT %:        100  MISS %:          0   MPKI: 0
STLB PREFETCH  REQUESTED:          0  ISSUED:          0  USEFUL:          0  USELESS:          0
STLB USEFUL LOAD PREFETCHES:          0 PREFETCH ISSUED TO LOWER LEVEL:          0  ACCURACY: -nan
STLB TIMELY PREFETCHES:          0 LATE PREFETCHES: 0 DROPPED PREFETCHES: 0
STLB PREFETCHES SAME FILL-ORIGIN LEVEL: 0 DIFFERENT FILL-ORIGIN LEVEL: 0
STLB AVERAGE MISS LATENCY: 153.509 cycles
STLB RQ	ACCESS:      93506	FORWARD:          0	MERGED:      20382	TO_CACHE:      73124

STLB Hit, L1D data hit: 0
STLB Hit, L2C data hit: 0
STLB Hit, LLC data hit: 0
STLB Hit, LLC data miss: 0
STLB STLB hints to L2: 0
L1D TOTAL     ACCESS:   15541422  HIT:   15534227  MISS:       7195  HIT %:    99.9537  MISS %:  0.0462956   MPKI: 0.1439
L1D LOAD      ACCESS:    8779042  HIT:    8775914  MISS:       3128  HIT %:    99.9644  MISS %:  0.0356303   MPKI: 0.06256
L1D RFO       ACCESS:    6672644  HIT:    6672388  MISS:        256  HIT %:    99.9962  MISS %: 0.00383656   MPKI: 0.00512
L1D PREFETCH  ACCESS:      89736  HIT:      85925  MISS:       3811  HIT %:    95.7531  MISS %:     4.2469   MPKI: 0.07622
AGUS PREFETCH L1 MISS: 0
L1D PREFETCH  REQUESTED:     180092  ISSUED:     179804  USEFUL:       1585  USELESS:       2209
L1D USEFUL LOAD PREFETCHES:       1585 PREFETCH ISSUED TO LOWER LEVEL:       3940  ACCURACY: 40.2284
L1D TIMELY PREFETCHES:       1585 LATE PREFETCHES: 127 DROPPED PREFETCHES: 0
L1D PREFETCHES SAME FILL-ORIGIN LEVEL: 3940 DIFFERENT FILL-ORIGIN LEVEL: 0
L1D AVERAGE MISS LATENCY: 138.62 cycles
L1D RQ	ACCESS:   12738209	FORWARD:          0	MERGED:    3811050	TO_CACHE:    8779255
L1D WQ	ACCESS:    7030375	FORWARD:     147928	MERGED:     357190	TO_CACHE:    6673185
L1D PQ	ACCESS:      89914	FORWARD:          0	MERGED:          0	TO_CACHE:      89890

L1D UNIQUE REGIONS ACCESSED: 0
L1D REGIONS CONFLICTS: 0
L1D Cross Page Prefetch Requests: 21776
L1D Same Page Prefetch Requests: 143598
L1D ROI Sum of L1D PQ occupancy: 1184637
L1D PREFETCHES PUSHED FROM L2C: 0
L1I TOTAL     ACCESS:   10247391  HIT:   10243702  MISS:       3689  HIT %:     99.964  MISS %:  0.0359994   MPKI: 0.07378
L1I LOAD      ACCESS:   10247391  HIT:   10243702  MISS:       3689  HIT %:     99.964  MISS %:  0.0359994   MPKI: 0.07378
L1I PREFETCH  REQUESTED:          0  ISSUED:          0  USEFUL:          0  USELESS:          0
L1I USEFUL LOAD PREFETCHES:          0 PREFETCH ISSUED TO LOWER LEVEL:          0  ACCURACY: -nan
L1I TIMELY PREFETCHES:          0 LATE PREFETCHES: 0 DROPPED PREFETCHES: 0
L1I PREFETCHES SAME FILL-ORIGIN LEVEL: 0 DIFFERENT FILL-ORIGIN LEVEL: 0
L1I AVERAGE MISS LATENCY: 14.3893 cycles
L1I RQ	ACCESS:   15257102	FORWARD:          0	MERGED:    5008638	TO_CACHE:   10248464

BTB TOTAL     ACCESS:    8738159  HIT:    8382820  MISS:     355339  HIT %:    95.9335  MISS %:    4.06652   MPKI: 7.10678
BTB BRANCH_DIRECT_JUMP	ACCESS:     819310  HIT:     819211  MISS:         99
BTB BRANCH_INDIRECT	ACCESS:     510194  HIT:     183565  MISS:     326629
BTB BRANCH_CONDITIONAL	ACCESS:    6549143  HIT:    6548831  MISS:        312
BTB BRANCH_DIRECT_CALL	ACCESS:     425501  HIT:     425427  MISS:         74
BTB BRANCH_INDIRECT_CALL	ACCESS:       4256  HIT:          0  MISS:       4256
BTB BRANCH_RETURN	ACCESS:     429755  HIT:     405786  MISS:      23969
BTB BRANCH_OTHER ACCESS:          0  HIT:          0  MISS:          0

L2C TOTAL     ACCESS:      11749  HIT:       5908  MISS:       5841  HIT %:    50.2851  MISS %:    49.7149   MPKI: 0.11682
L2C LOAD      ACCESS:       6690  HIT:       3784  MISS:       2906  HIT %:     56.562  MISS %:     43.438   MPKI: 0.05812
L2C DATA LOAD MPKI: 0.05734
L2C INSTRUCTION LOAD MPKI: 0.00078
L2C RFO       ACCESS:        254  HIT:        112  MISS:        142  HIT %:    44.0945  MISS %:    55.9055   MPKI: 0.00284
L2C PREFETCH  ACCESS:       3940  HIT:       1229  MISS:       2711  HIT %:    31.1929  MISS %:    68.8071   MPKI: 0.05422
AGUS PREFETCH L1 MISS: 0
L2C DATA PREFETCH MPKI: 0.05422
L2C INSTRUCTION PREFETCH MPKI: 0
L2C WRITEBACK ACCESS:        578  HIT:        574  MISS:          4  HIT %:     99.308  MISS %:   0.692042   MPKI: 8e-05
L2C LOAD TRANSLATION ACCESS:        287  HIT:        209  MISS:         78  HIT %:    72.8223  MISS %:    27.1777   MPKI: 0.00156
L2C PREFETCH  REQUESTED:          0  ISSUED:          0  USEFUL:         55  USELESS:       1761
L2C USEFUL LOAD PREFETCHES:         55 PREFETCH ISSUED TO LOWER LEVEL:       2711  ACCURACY: 2.02877
L2C TIMELY PREFETCHES:         55 LATE PREFETCHES: 0 DROPPED PREFETCHES: 0
L2C PREFETCHES SAME FILL-ORIGIN LEVEL: 0 DIFFERENT FILL-ORIGIN LEVEL: 0
L2C AVERAGE MISS LATENCY: 155.022 cycles
L2C RQ	ACCESS:       7231	FORWARD:          0	MERGED:          0	TO_CACHE:       7231
L2C WQ	ACCESS:        578	FORWARD:          0	MERGED:          0	TO_CACHE:        578
L2C PQ	ACCESS:       3940	FORWARD:          0	MERGED:          0	TO_CACHE:       3940

L2C Instructions Evicting Data 27
L2C Translations Evicting Data 51
L2C Data Evicting Data 3550
L2C Instructions Evicting Instructions 0
L2C Translations Evicting Instructions 2
L2C Data Evicting Instructions 207
L2C Instructions Evicting Translations 1
L2C Translations Evicting Translations 0
L2C Data Evicting Translations 126
L2C Dense regions hint from L2: 0
PSCL5 TOTAL     ACCESS:        287  HIT:        287  MISS:          0  HIT %:        100  MISS %:          0   MPKI: 0
PSCL5 LOAD TRANSLATION ACCESS:        287  HIT:        287  MISS:          0  HIT %:        100  MISS %:          0   MPKI: 0
PSCL5 PREFETCH  REQUESTED:          0  ISSUED:          0  USEFUL:          0  USELESS:          0
PSCL5 USEFUL LOAD PREFETCHES:          0 PREFETCH ISSUED TO LOWER LEVEL:          0  ACCURACY: -nan
PSCL5 TIMELY PREFETCHES:          0 LATE PREFETCHES: 0 DROPPED PREFETCHES: 0
PSCL5 PREFETCHES SAME FILL-ORIGIN LEVEL: 0 DIFFERENT FILL-ORIGIN LEVEL: 0

PSCL4 TOTAL     ACCESS:        287  HIT:        287  MISS:          0  HIT %:        100  MISS %:          0   MPKI: 0
PSCL4 LOAD TRANSLATION ACCESS:        287  HIT:        287  MISS:          0  HIT %:        100  MISS %:          0   MPKI: 0
PSCL4 PREFETCH  REQUESTED:          0  ISSUED:          0  USEFUL:          0  USELESS:          0
PSCL4 USEFUL LOAD PREFETCHES:          0 PREFETCH ISSUED TO LOWER LEVEL:          0  ACCURACY: -nan
PSCL4 TIMELY PREFETCHES:          0 LATE PREFETCHES: 0 DROPPED PREFETCHES: 0
PSCL4 PREFETCHES SAME FILL-ORIGIN LEVEL: 0 DIFFERENT FILL-ORIGIN LEVEL: 0

PSCL3 TOTAL     ACCESS:        287  HIT:        287  MISS:          0  HIT %:        100  MISS %:          0   MPKI: 0
PSCL3 LOAD TRANSLATION ACCESS:        287  HIT:        287  MISS:          0  HIT %:        100  MISS %:          0   MPKI: 0
PSCL3 PREFETCH  REQUESTED:          0  ISSUED:          0  USEFUL:          0  USELESS:          0
PSCL3 USEFUL LOAD PREFETCHES:          0 PREFETCH ISSUED TO LOWER LEVEL:          0  ACCURACY: -nan
PSCL3 TIMELY PREFETCHES:          0 LATE PREFETCHES: 0 DROPPED PREFETCHES: 0
PSCL3 PREFETCHES SAME FILL-ORIGIN LEVEL: 0 DIFFERENT FILL-ORIGIN LEVEL: 0

PSCL2 TOTAL     ACCESS:        287  HIT:        287  MISS:          0  HIT %:        100  MISS %:          0   MPKI: 0
PSCL2 LOAD TRANSLATION ACCESS:        287  HIT:        287  MISS:          0  HIT %:        100  MISS %:          0   MPKI: 0
PSCL2 PREFETCH  REQUESTED:          0  ISSUED:          0  USEFUL:          0  USELESS:          0
PSCL2 USEFUL LOAD PREFETCHES:          0 PREFETCH ISSUED TO LOWER LEVEL:          0  ACCURACY: -nan
PSCL2 TIMELY PREFETCHES:          0 LATE PREFETCHES: 0 DROPPED PREFETCHES: 0
PSCL2 PREFETCHES SAME FILL-ORIGIN LEVEL: 0 DIFFERENT FILL-ORIGIN LEVEL: 0

LLC TOTAL     ACCESS:       6107  HIT:        398  MISS:       5709  HIT %:    6.51711  MISS %:    93.4829   MPKI: 0.11418
LLC LOAD      ACCESS:       2906  HIT:         32  MISS:       2874  HIT %:    1.10117  MISS %:    98.8988   MPKI: 0.05748
LLC RFO       ACCESS:        142  HIT:          1  MISS:        141  HIT %:   0.704225  MISS %:    99.2958   MPKI: 0.00282
LLC PREFETCH  ACCESS:       2711  HIT:         75  MISS:       2636  HIT %:    2.76651  MISS %:    97.2335   MPKI: 0.05272
AGUS PREFETCH L1 MISS: 0
LLC WRITEBACK ACCESS:        270  HIT:        270  MISS:          0  HIT %:        100  MISS %:          0   MPKI: 0
LLC LOAD TRANSLATION ACCESS:         78  HIT:         20  MISS:         58  HIT %:     25.641  MISS %:     74.359   MPKI: 0.00116
LLC PREFETCH  REQUESTED:          0  ISSUED:          0  USEFUL:          8  USELESS:          0
LLC USEFUL LOAD PREFETCHES:          8 PREFETCH ISSUED TO LOWER LEVEL:       2636  ACCURACY: 0.30349
LLC TIMELY PREFETCHES:          8 LATE PREFETCHES: 0 DROPPED PREFETCHES: 0
LLC PREFETCHES SAME FILL-ORIGIN LEVEL: 0 DIFFERENT FILL-ORIGIN LEVEL: 0
LLC AVERAGE MISS LATENCY: 127.755 cycles
LLC RQ	ACCESS:       3126	FORWARD:          0	MERGED:          0	TO_CACHE:       3126
LLC WQ	ACCESS:        270	FORWARD:          0	MERGED:          0	TO_CACHE:        270
LLC PQ	ACCESS:       2711	FORWARD:          0	MERGED:          0	TO_CACHE:       2711

LLC Dense regions hint to LLC: 0

RAW hits: 739048
Loads Generated: 13477257
Loads sent to L1D: 12738209
Stores Generated: 7030371
Stores sent to L1D: 7030375
Major fault: 0 Minor fault: 846
Allocated PAGES: 846

stream: 
stream:times selected: 1183829
stream:pref_reqs: 1187733
stream:pref_reqs_filtered_out: 1145319
stream:pref_filled: 4048
stream:pref_useful: 1953
stream:pref_late: 102
stream:misses: 209
stream:misses_by_poll: 0

CS: 
CS:times selected: 89942
CS:pref_reqs: 269234
CS:pref_reqs_filtered_out: 261104
CS:pref_filled: 394
CS:pref_useful: 215
CS:pref_late: 0
CS:misses: 4
CS:misses_by_poll: 0

CPLX: 
CPLX:times selected: 1093693
CPLX:pref_reqs: 1348121
CPLX:pref_reqs_filtered_out: 1306605
CPLX:pref_filled: 2367
CPLX:pref_useful: 523
CPLX:pref_late: 14
CPLX:misses: 1469
CPLX:misses_by_poll: 1

ISB: 
ISB:total access:14002385
ISB:times selected:9118638
ISB:canary counter:0
ISB:pref_reqs: 7702583
ISB:pref_reqs_filtered_out: 7628234
ISB:pref_filled: 902
ISB:pref_useful: 606
ISB:pref_late: 0
ISB:misses: 1048
ISB:misses_by_poll: 0
ISB:Stream end: 8645623
ISB:No Prediction: 4883747 34.878
ISB:No translation: 2945206584
ISB:Predictions: 73951 0.528131

NL_L1: 
NL:times selected: 321
NL:pref_reqs: 321
NL:pref_reqs_filtered_out: 269
NL:pref_filled: 18
NL:pref_useful: 8
NL:pref_late: 1
NL:misses: 14
NL:misses_by_poll: 0

Coverage: 33.6304
total selections: 11486423
total_filled: 3811
total_useful: 1585
total_late: 130
total_polluted: 1
total_misses_after_warmup: 3341
conflicts: 1350611

test: 0
ISB Prefetcher final stats
Prefetcher final stats
Training Unit Size: 1327
Addr table size: 8243 12744
Triggers: 14002385
Structural address exists: 9118638 65.122
No Prediction: 4883747 34.878
Prefetches issued: 73951 0.528131
Stream end: 8645623
No translation: 2945206584
%Stream divergence: 97386 0.695496
Stream divergence -- new stream: 0
A: 0
B: 0
C: 1183834
D: 1183834
E: 1183834
F: 0
G: 0

DRAM Statistics
 CHANNEL 0
 RQ ROW_BUFFER_HIT:       2486  ROW_BUFFER_MISS:       3223
 DBUS_CONGESTED:          0
 WQ ROW_BUFFER_HIT:          0  ROW_BUFFER_MISS:          0  FULL:          0

 AVG_CONGESTED_CYCLE: -
 All warmup complete: 2
Channel 0 Bank busy for read cycles: 0
Channel 0 Bank busy for write cycles: 0
Channel 0
Rank 0
0banks busy for read cycles: 123834903
0banks busy for write cycles: 0
1banks busy for read cycles: 318813
1banks busy for write cycles: 0
2banks busy for read cycles: 110591
2banks busy for write cycles: 0
3banks busy for read cycles: 19861
3banks busy for write cycles: 0
4banks busy for read cycles: 1847
4banks busy for write cycles: 0
5banks busy for read cycles: 157
5banks busy for write cycles: 0
6banks busy for read cycles: 0
6banks busy for write cycles: 0
7banks busy for read cycles: 0
7banks busy for write cycles: 0
8banks busy for read cycles: 0
8banks busy for write cycles: 0

CPU 0 Branch Prediction Accuracy: 95.4654% MPKI: 9.45396 Average ROB Occupancy at Mispredict: 33.0284
Branch types
NOT_BRANCH: 39575384 79.1508%
BRANCH_DIRECT_JUMP: 819310 1.63862%
BRANCH_INDIRECT: 510194 1.02039%
BRANCH_CONDITIONAL: 8235338 16.4707%
BRANCH_DIRECT_CALL: 425501 0.851002%
BRANCH_INDIRECT_CALL: 4256 0.008512%
BRANCH_RETURN: 429755 0.85951%
BRANCH_OTHER: 0 0%

DRAM PAGES: 1048576
Allocated PAGES: 846
