
*** ChampSim Multicore Out-of-Order Simulator ***

Warmup Instructions: 50000000
Simulation Instructions: 50000000
Number of CPUs: 1
LLC sets: 2048
LLC ways: 16
Off-chip DRAM Size: 4096 MB Channels: 1 Width: 64-bit Data Rate: 6400 MT/s
CPU 0 runs ./traces/SPEC-CPU2017/400.perlbench-50B.champsimtrace.xz
.xz
CPU 0 Bimodal branch predictor
BTB has LRU replacement policy
ITLB has LRU replacement policy
DTLB has LRU replacement policy
STLB has LRU replacement policy
L1I has LRU replacement policy
L1D has LRU replacement policy
L2C has LRU replacement policy
LLC has LRU replacement policy
Heartbeat CPU 0 instructions: 10000002 cycles: 3307140 heartbeat IPC: 3.02376 cumulative IPC: 3.02376 (Simulation time: 0 hr 10 min 35 sec) 
Heartbeat CPU 0 instructions: 20000000 cycles: 6462245 heartbeat IPC: 3.16947 cumulative IPC: 3.0949 (Simulation time: 0 hr 20 min 42 sec) 
Heartbeat CPU 0 instructions: 30000003 cycles: 9583151 heartbeat IPC: 3.2042 cumulative IPC: 3.13049 (Simulation time: 0 hr 30 min 44 sec) 
Heartbeat CPU 0 instructions: 40000000 cycles: 12684718 heartbeat IPC: 3.22418 cumulative IPC: 3.1534 (Simulation time: 0 hr 40 min 45 sec) 
Heartbeat CPU 0 instructions: 50000003 cycles: 15870264 heartbeat IPC: 3.13918 cumulative IPC: 3.15055 (Simulation time: 0 hr 51 min 19 sec) 

Warmup complete CPU 0 instructions: 50000003 cycles: 15870264 (Simulation time: 0 hr 51 min 19 sec) 

Heartbeat CPU 0 instructions: 60000000 cycles: 41934147 heartbeat IPC: 0.383673 cumulative IPC: 0.383673 (Simulation time: 0 hr 55 min 48 sec) 
Heartbeat CPU 0 instructions: 70000000 cycles: 65544979 heartbeat IPC: 0.423534 cumulative IPC: 0.402619 (Simulation time: 0 hr 58 min 22 sec) 
Heartbeat CPU 0 instructions: 80000000 cycles: 91090753 heartbeat IPC: 0.391454 cumulative IPC: 0.398827 (Simulation time: 1 hr 0 min 35 sec) 
Heartbeat CPU 0 instructions: 90000000 cycles: 115102948 heartbeat IPC: 0.416455 cumulative IPC: 0.403093 (Simulation time: 1 hr 3 min 4 sec) 
Heartbeat CPU 0 instructions: 100000000 cycles: 140155888 heartbeat IPC: 0.399155 cumulative IPC: 0.402299 (Simulation time: 1 hr 5 min 2 sec) 
Finished CPU 0 instructions: 50000000 cycles: 124285641 cumulative IPC: 0.402299 (Simulation time: 1 hr 5 min 2 sec) 

ChampSim completed all CPUs

Region of Interest Statistics

CPU 0 cumulative IPC: 0.402299 instructions: 50000000 cycles: 124285641
ITLB TOTAL     ACCESS:    8754786  HIT:    8754786  MISS:          0  HIT %:        100  MISS %:          0   MPKI: 0
ITLB LOAD TRANSLATION ACCESS:    8754786  HIT:    8754786  MISS:          0  HIT %:        100  MISS %:          0   MPKI: 0
ITLB PREFETCH  REQUESTED:          0  ISSUED:          0  USEFUL:          0  USELESS:          0
ITLB USEFUL LOAD PREFETCHES:          0 PREFETCH ISSUED TO LOWER LEVEL:          0  ACCURACY: -nan
ITLB TIMELY PREFETCHES:          0 LATE PREFETCHES: 0 DROPPED PREFETCHES: 0
ITLB PREFETCHES SAME FILL-ORIGIN LEVEL: 0 DIFFERENT FILL-ORIGIN LEVEL: 0
ITLB AVERAGE MISS LATENCY: -nan cycles
ITLB RQ	ACCESS:   10248467	FORWARD:          0	MERGED:    1493682	TO_CACHE:    8754785

DTLB TOTAL     ACCESS:   13115494  HIT:   13111878  MISS:       3616  HIT %:    99.9724  MISS %:  0.0275704   MPKI: 0.07232
DTLB LOAD TRANSLATION ACCESS:   13115494  HIT:   13111878  MISS:       3616  HIT %:    99.9724  MISS %:  0.0275704   MPKI: 0.07232
DTLB PREFETCH  REQUESTED:          0  ISSUED:          0  USEFUL:          0  USELESS:          0
DTLB USEFUL LOAD PREFETCHES:          0 PREFETCH ISSUED TO LOWER LEVEL:          0  ACCURACY: -nan
DTLB TIMELY PREFETCHES:          0 LATE PREFETCHES: 0 DROPPED PREFETCHES: 0
DTLB PREFETCHES SAME FILL-ORIGIN LEVEL: 0 DIFFERENT FILL-ORIGIN LEVEL: 0
DTLB AVERAGE MISS LATENCY: 21.2779 cycles
DTLB RQ	ACCESS:   15452430	FORWARD:          0	MERGED:    2336746	TO_CACHE:   13115684

STLB TOTAL     ACCESS:      43021  HIT:      42734  MISS:        287  HIT %:    99.3329  MISS %:   0.667116   MPKI: 0.00574
STLB LOAD TRANSLATION ACCESS:       3616  HIT:       3329  MISS:        287  HIT %:    92.0631  MISS %:    7.93695   MPKI: 0.00574
STLB TRANSLATION FROM L1D PREFETCHER ACCESS:      39405  HIT:      39405  MISS:          0  HIT %:        100  MISS %:          0   MPKI: 0
STLB PREFETCH  REQUESTED:          0  ISSUED:          0  USEFUL:          0  USELESS:          0
STLB USEFUL LOAD PREFETCHES:          0 PREFETCH ISSUED TO LOWER LEVEL:          0  ACCURACY: -nan
STLB TIMELY PREFETCHES:          0 LATE PREFETCHES: 0 DROPPED PREFETCHES: 0
STLB PREFETCHES SAME FILL-ORIGIN LEVEL: 0 DIFFERENT FILL-ORIGIN LEVEL: 0
STLB AVERAGE MISS LATENCY: 153.509 cycles
STLB RQ	ACCESS:      53372	FORWARD:          0	MERGED:      10351	TO_CACHE:      43021

STLB Hit, L1D data hit: 0
STLB Hit, L2C data hit: 0
STLB Hit, LLC data hit: 0
STLB Hit, LLC data miss: 0
STLB STLB hints to L2: 0
L1D TOTAL     ACCESS:   15501265  HIT:   15494367  MISS:       6898  HIT %:    99.9555  MISS %:  0.0444996   MPKI: 0.13796
L1D LOAD      ACCESS:    8779014  HIT:    8775831  MISS:       3183  HIT %:    99.9637  MISS %:  0.0362569   MPKI: 0.06366
L1D RFO       ACCESS:    6672638  HIT:    6672373  MISS:        265  HIT %:     99.996  MISS %: 0.00397144   MPKI: 0.0053
L1D PREFETCH  ACCESS:      49613  HIT:      46163  MISS:       3450  HIT %:    93.0462  MISS %:    6.95382   MPKI: 0.069
AGUS PREFETCH L1 MISS: 0
L1D PREFETCH  REQUESTED:      99577  ISSUED:      99512  USEFUL:       1478  USELESS:       1947
L1D USEFUL LOAD PREFETCHES:       1478 PREFETCH ISSUED TO LOWER LEVEL:       3571  ACCURACY: 41.389
L1D TIMELY PREFETCHES:       1478 LATE PREFETCHES: 120 DROPPED PREFETCHES: 0
L1D PREFETCHES SAME FILL-ORIGIN LEVEL: 3571 DIFFERENT FILL-ORIGIN LEVEL: 0
L1D AVERAGE MISS LATENCY: 142.674 cycles
L1D RQ	ACCESS:   12738206	FORWARD:          0	MERGED:    3811060	TO_CACHE:    8779243
L1D WQ	ACCESS:    7030375	FORWARD:     147903	MERGED:     357188	TO_CACHE:    6673187
L1D PQ	ACCESS:      49756	FORWARD:          0	MERGED:          0	TO_CACHE:      49756

L1D UNIQUE REGIONS ACCESSED: 0
L1D REGIONS CONFLICTS: 0
L1D Cross Page Prefetch Requests: 8462
L1D Same Page Prefetch Requests: 88759
L1D ROI Sum of L1D PQ occupancy: 662121
L1D PREFETCHES PUSHED FROM L2C: 0
L1I TOTAL     ACCESS:   10247393  HIT:   10243704  MISS:       3689  HIT %:     99.964  MISS %:  0.0359994   MPKI: 0.07378
L1I LOAD      ACCESS:   10247393  HIT:   10243704  MISS:       3689  HIT %:     99.964  MISS %:  0.0359994   MPKI: 0.07378
L1I PREFETCH  REQUESTED:          0  ISSUED:          0  USEFUL:          0  USELESS:          0
L1I USEFUL LOAD PREFETCHES:          0 PREFETCH ISSUED TO LOWER LEVEL:          0  ACCURACY: -nan
L1I TIMELY PREFETCHES:          0 LATE PREFETCHES: 0 DROPPED PREFETCHES: 0
L1I PREFETCHES SAME FILL-ORIGIN LEVEL: 0 DIFFERENT FILL-ORIGIN LEVEL: 0
L1I AVERAGE MISS LATENCY: 14.4055 cycles
L1I RQ	ACCESS:   15257104	FORWARD:          0	MERGED:    5008637	TO_CACHE:   10248467

BTB TOTAL     ACCESS:    8738159  HIT:    8382820  MISS:     355339  HIT %:    95.9335  MISS %:    4.06652   MPKI: 7.10678
BTB BRANCH_DIRECT_JUMP	ACCESS:     819310  HIT:     819211  MISS:         99
BTB BRANCH_INDIRECT	ACCESS:     510194  HIT:     183565  MISS:     326629
BTB BRANCH_CONDITIONAL	ACCESS:    6549143  HIT:    6548831  MISS:        312
BTB BRANCH_DIRECT_CALL	ACCESS:     425501  HIT:     425427  MISS:         74
BTB BRANCH_INDIRECT_CALL	ACCESS:       4256  HIT:          0  MISS:       4256
BTB BRANCH_RETURN	ACCESS:     429755  HIT:     405786  MISS:      23969
BTB BRANCH_OTHER ACCESS:          0  HIT:          0  MISS:          0

L2C TOTAL     ACCESS:      11456  HIT:       5656  MISS:       5800  HIT %:    49.3715  MISS %:    50.6285   MPKI: 0.116
L2C LOAD      ACCESS:       6752  HIT:       3819  MISS:       2933  HIT %:     56.561  MISS %:     43.439   MPKI: 0.05866
L2C DATA LOAD MPKI: 0.05784
L2C INSTRUCTION LOAD MPKI: 0.00082
L2C RFO       ACCESS:        264  HIT:        121  MISS:        143  HIT %:    45.8333  MISS %:    54.1667   MPKI: 0.00286
L2C PREFETCH  ACCESS:       3571  HIT:        927  MISS:       2644  HIT %:    25.9591  MISS %:    74.0409   MPKI: 0.05288
AGUS PREFETCH L1 MISS: 0
L2C DATA PREFETCH MPKI: 0.05288
L2C INSTRUCTION PREFETCH MPKI: 0
L2C WRITEBACK ACCESS:        582  HIT:        580  MISS:          2  HIT %:    99.6564  MISS %:   0.343643   MPKI: 4e-05
L2C LOAD TRANSLATION ACCESS:        287  HIT:        209  MISS:         78  HIT %:    72.8223  MISS %:    27.1777   MPKI: 0.00156
L2C PREFETCH  REQUESTED:          0  ISSUED:          0  USEFUL:         54  USELESS:       1836
L2C USEFUL LOAD PREFETCHES:         54 PREFETCH ISSUED TO LOWER LEVEL:       2644  ACCURACY: 2.04236
L2C TIMELY PREFETCHES:         54 LATE PREFETCHES: 0 DROPPED PREFETCHES: 0
L2C PREFETCHES SAME FILL-ORIGIN LEVEL: 0 DIFFERENT FILL-ORIGIN LEVEL: 0
L2C AVERAGE MISS LATENCY: 154.639 cycles
L2C RQ	ACCESS:       7303	FORWARD:          0	MERGED:          0	TO_CACHE:       7303
L2C WQ	ACCESS:        582	FORWARD:          0	MERGED:          0	TO_CACHE:        582
L2C PQ	ACCESS:       3571	FORWARD:          0	MERGED:          0	TO_CACHE:       3571

L2C Instructions Evicting Data 28
L2C Translations Evicting Data 48
L2C Data Evicting Data 3634
L2C Instructions Evicting Instructions 1
L2C Translations Evicting Instructions 3
L2C Data Evicting Instructions 209
L2C Instructions Evicting Translations 2
L2C Translations Evicting Translations 0
L2C Data Evicting Translations 120
L2C Dense regions hint from L2: 0
PSCL5 TOTAL     ACCESS:        287  HIT:        287  MISS:          0  HIT %:        100  MISS %:          0   MPKI: 0
PSCL5 LOAD TRANSLATION ACCESS:        287  HIT:        287  MISS:          0  HIT %:        100  MISS %:          0   MPKI: 0
PSCL5 PREFETCH  REQUESTED:          0  ISSUED:          0  USEFUL:          0  USELESS:          0
PSCL5 USEFUL LOAD PREFETCHES:          0 PREFETCH ISSUED TO LOWER LEVEL:          0  ACCURACY: -nan
PSCL5 TIMELY PREFETCHES:          0 LATE PREFETCHES: 0 DROPPED PREFETCHES: 0
PSCL5 PREFETCHES SAME FILL-ORIGIN LEVEL: 0 DIFFERENT FILL-ORIGIN LEVEL: 0

PSCL4 TOTAL     ACCESS:        287  HIT:        287  MISS:          0  HIT %:        100  MISS %:          0   MPKI: 0
PSCL4 LOAD TRANSLATION ACCESS:        287  HIT:        287  MISS:          0  HIT %:        100  MISS %:          0   MPKI: 0
PSCL4 PREFETCH  REQUESTED:          0  ISSUED:          0  USEFUL:          0  USELESS:          0
PSCL4 USEFUL LOAD PREFETCHES:          0 PREFETCH ISSUED TO LOWER LEVEL:          0  ACCURACY: -nan
PSCL4 TIMELY PREFETCHES:          0 LATE PREFETCHES: 0 DROPPED PREFETCHES: 0
PSCL4 PREFETCHES SAME FILL-ORIGIN LEVEL: 0 DIFFERENT FILL-ORIGIN LEVEL: 0

PSCL3 TOTAL     ACCESS:        287  HIT:        287  MISS:          0  HIT %:        100  MISS %:          0   MPKI: 0
PSCL3 LOAD TRANSLATION ACCESS:        287  HIT:        287  MISS:          0  HIT %:        100  MISS %:          0   MPKI: 0
PSCL3 PREFETCH  REQUESTED:          0  ISSUED:          0  USEFUL:          0  USELESS:          0
PSCL3 USEFUL LOAD PREFETCHES:          0 PREFETCH ISSUED TO LOWER LEVEL:          0  ACCURACY: -nan
PSCL3 TIMELY PREFETCHES:          0 LATE PREFETCHES: 0 DROPPED PREFETCHES: 0
PSCL3 PREFETCHES SAME FILL-ORIGIN LEVEL: 0 DIFFERENT FILL-ORIGIN LEVEL: 0

PSCL2 TOTAL     ACCESS:        287  HIT:        287  MISS:          0  HIT %:        100  MISS %:          0   MPKI: 0
PSCL2 LOAD TRANSLATION ACCESS:        287  HIT:        287  MISS:          0  HIT %:        100  MISS %:          0   MPKI: 0
PSCL2 PREFETCH  REQUESTED:          0  ISSUED:          0  USEFUL:          0  USELESS:          0
PSCL2 USEFUL LOAD PREFETCHES:          0 PREFETCH ISSUED TO LOWER LEVEL:          0  ACCURACY: -nan
PSCL2 TIMELY PREFETCHES:          0 LATE PREFETCHES: 0 DROPPED PREFETCHES: 0
PSCL2 PREFETCHES SAME FILL-ORIGIN LEVEL: 0 DIFFERENT FILL-ORIGIN LEVEL: 0

LLC TOTAL     ACCESS:       6073  HIT:        402  MISS:       5671  HIT %:    6.61946  MISS %:    93.3805   MPKI: 0.11342
LLC LOAD      ACCESS:       2933  HIT:         42  MISS:       2891  HIT %:    1.43198  MISS %:     98.568   MPKI: 0.05782
LLC RFO       ACCESS:        143  HIT:          1  MISS:        142  HIT %:   0.699301  MISS %:    99.3007   MPKI: 0.00284
LLC PREFETCH  ACCESS:       2644  HIT:         64  MISS:       2580  HIT %:    2.42057  MISS %:    97.5794   MPKI: 0.0516
AGUS PREFETCH L1 MISS: 0
LLC WRITEBACK ACCESS:        275  HIT:        275  MISS:          0  HIT %:        100  MISS %:          0   MPKI: 0
LLC LOAD TRANSLATION ACCESS:         78  HIT:         20  MISS:         58  HIT %:     25.641  MISS %:     74.359   MPKI: 0.00116
LLC PREFETCH  REQUESTED:          0  ISSUED:          0  USEFUL:         11  USELESS:          0
LLC USEFUL LOAD PREFETCHES:         11 PREFETCH ISSUED TO LOWER LEVEL:       2580  ACCURACY: 0.426357
LLC TIMELY PREFETCHES:         11 LATE PREFETCHES: 0 DROPPED PREFETCHES: 0
LLC PREFETCHES SAME FILL-ORIGIN LEVEL: 0 DIFFERENT FILL-ORIGIN LEVEL: 0
LLC AVERAGE MISS LATENCY: 127.294 cycles
LLC RQ	ACCESS:       3154	FORWARD:          0	MERGED:          0	TO_CACHE:       3154
LLC WQ	ACCESS:        275	FORWARD:          0	MERGED:          0	TO_CACHE:        275
LLC PQ	ACCESS:       2644	FORWARD:          0	MERGED:          0	TO_CACHE:       2644

LLC Dense regions hint to LLC: 0

RAW hits: 739051
Loads Generated: 13477257
Loads sent to L1D: 12738206
Stores Generated: 7030371
Stores sent to L1D: 7030375
Major fault: 0 Minor fault: 846
Allocated PAGES: 846

stream: 
stream:times selected: 1183809
stream:pref_reqs: 1204943
stream:pref_reqs_filtered_out: 1168541
stream:pref_filled: 4210
stream:pref_useful: 2073
stream:pref_late: 95
stream:misses: 301
stream:misses_by_poll: 0

CS: 
CS:times selected: 89595
CS:pref_reqs: 268193
CS:pref_reqs_filtered_out: 252861
CS:pref_filled: 614
CS:pref_useful: 446
CS:pref_late: 0
CS:misses: 13
CS:misses_by_poll: 0

CPLX: 
CPLX:times selected: 1094022
CPLX:pref_reqs: 1420637
CPLX:pref_reqs_filtered_out: 1386307
CPLX:pref_filled: 2409
CPLX:pref_useful: 519
CPLX:pref_late: 13
CPLX:misses: 2263
CPLX:misses_by_poll: 1

ISB: 
ISB:total access:11961645
ISB:times selected:753683
ISB:canary counter:0
ISB:pref_reqs: 589504
ISB:pref_reqs_filtered_out: 577568
ISB:pref_filled: 151
ISB:pref_useful: 123
ISB:pref_late: 0
ISB:misses: 15
ISB:misses_by_poll: 0
ISB:Stream end: 698503
ISB:No Prediction: 11207962 93.6992
ISB:No translation: 711510284 5948.26
ISB:Predictions: 11934 0.0997689

NL_L1: 
NL:times selected: 2865
NL:pref_reqs: 2865
NL:pref_reqs_filtered_out: 2811
NL:pref_filled: 16
NL:pref_useful: 7
NL:pref_late: 1
NL:misses: 17
NL:misses_by_poll: 0

Coverage: 31.7099
total selections: 3123974
total_filled: 3450
total_useful: 1478
total_late: 123
total_polluted: 1
total_misses_after_warmup: 3412
conflicts: 1350593

test: 0
Prefetcher final stats
Training Unit Size: 42
Addr table size: 2825 2825
Stream divergence: 12 0.000100321
Stream divergence -- new stream: 0
--------------------------Training unit table ------------------------

DRAM Statistics
 CHANNEL 0
 RQ ROW_BUFFER_HIT:       2496  ROW_BUFFER_MISS:       3175
 DBUS_CONGESTED:          0
 WQ ROW_BUFFER_HIT:          0  ROW_BUFFER_MISS:          0  FULL:          0

 AVG_CONGESTED_CYCLE: -
 All warmup complete: 2
Channel 0 Bank busy for read cycles: 0
Channel 0 Bank busy for write cycles: 0
Channel 0
Rank 0
0banks busy for read cycles: 123837982
0banks busy for write cycles: 0
1banks busy for read cycles: 318427
1banks busy for write cycles: 0
2banks busy for read cycles: 107861
2banks busy for write cycles: 0
3banks busy for read cycles: 19054
3banks busy for write cycles: 0
4banks busy for read cycles: 1960
4banks busy for write cycles: 0
5banks busy for read cycles: 249
5banks busy for write cycles: 0
6banks busy for read cycles: 109
6banks busy for write cycles: 0
7banks busy for read cycles: 0
7banks busy for write cycles: 0
8banks busy for read cycles: 0
8banks busy for write cycles: 0

CPU 0 Branch Prediction Accuracy: 95.4654% MPKI: 9.45396 Average ROB Occupancy at Mispredict: 33.0288
Branch types
NOT_BRANCH: 39575384 79.1508%
BRANCH_DIRECT_JUMP: 819310 1.63862%
BRANCH_INDIRECT: 510194 1.02039%
BRANCH_CONDITIONAL: 8235338 16.4707%
BRANCH_DIRECT_CALL: 425501 0.851002%
BRANCH_INDIRECT_CALL: 4256 0.008512%
BRANCH_RETURN: 429755 0.85951%
BRANCH_OTHER: 0 0%

DRAM PAGES: 1048576
Allocated PAGES: 846
