
*** ChampSim Multicore Out-of-Order Simulator ***

Warmup Instructions: 50000000
Simulation Instructions: 50000000
Number of CPUs: 1
LLC sets: 2048
LLC ways: 16
Off-chip DRAM Size: 4096 MB Channels: 1 Width: 64-bit Data Rate: 6400 MT/s
CPU 0 runs ./traces/SPEC-CPU2017/400.perlbench-50B.champsimtrace.xz
.xz
CPU 0 Bimodal branch predictor
BTB has LRU replacement policy
ITLB has LRU replacement policy
DTLB has LRU replacement policy
STLB has LRU replacement policy
L1I has LRU replacement policy
L1D has LRU replacement policy
L2C has LRU replacement policy
LLC has LRU replacement policy
Heartbeat CPU 0 instructions: 10000002 cycles: 3307472 heartbeat IPC: 3.02346 cumulative IPC: 3.02346 (Simulation time: 0 hr 0 min 58 sec) 
Heartbeat CPU 0 instructions: 20000000 cycles: 6462891 heartbeat IPC: 3.16915 cumulative IPC: 3.09459 (Simulation time: 0 hr 2 min 1 sec) 
Heartbeat CPU 0 instructions: 30000003 cycles: 9584514 heartbeat IPC: 3.20346 cumulative IPC: 3.13005 (Simulation time: 0 hr 3 min 2 sec) 
Heartbeat CPU 0 instructions: 40000000 cycles: 12686645 heartbeat IPC: 3.22359 cumulative IPC: 3.15292 (Simulation time: 0 hr 4 min 3 sec) 
Heartbeat CPU 0 instructions: 50000003 cycles: 15872755 heartbeat IPC: 3.13862 cumulative IPC: 3.15005 (Simulation time: 0 hr 5 min 6 sec) 

Warmup complete CPU 0 instructions: 50000003 cycles: 15872755 (Simulation time: 0 hr 5 min 6 sec) 

Heartbeat CPU 0 instructions: 60000000 cycles: 41970522 heartbeat IPC: 0.383174 cumulative IPC: 0.383174 (Simulation time: 0 hr 6 min 24 sec) 
Heartbeat CPU 0 instructions: 70000000 cycles: 65633612 heartbeat IPC: 0.422599 cumulative IPC: 0.401922 (Simulation time: 0 hr 7 min 37 sec) 
Heartbeat CPU 0 instructions: 80000000 cycles: 91229663 heartbeat IPC: 0.390685 cumulative IPC: 0.398105 (Simulation time: 0 hr 8 min 46 sec) 
Heartbeat CPU 0 instructions: 90000000 cycles: 115264282 heartbeat IPC: 0.416066 cumulative IPC: 0.402449 (Simulation time: 0 hr 10 min 3 sec) 
Heartbeat CPU 0 instructions: 100000000 cycles: 140368528 heartbeat IPC: 0.398339 cumulative IPC: 0.40162 (Simulation time: 0 hr 11 min 5 sec) 
Finished CPU 0 instructions: 50000000 cycles: 124495790 cumulative IPC: 0.40162 (Simulation time: 0 hr 11 min 5 sec) 

ChampSim completed all CPUs

Region of Interest Statistics

CPU 0 cumulative IPC: 0.40162 instructions: 50000000 cycles: 124495790
ITLB TOTAL     ACCESS:    8754782  HIT:    8754782  MISS:          0  HIT %:        100  MISS %:          0   MPKI: 0
ITLB LOAD TRANSLATION ACCESS:    8754782  HIT:    8754782  MISS:          0  HIT %:        100  MISS %:          0   MPKI: 0
ITLB PREFETCH  REQUESTED:          0  ISSUED:          0  USEFUL:          0  USELESS:          0
ITLB USEFUL LOAD PREFETCHES:          0 PREFETCH ISSUED TO LOWER LEVEL:          0  ACCURACY: -nan
ITLB TIMELY PREFETCHES:          0 LATE PREFETCHES: 0 DROPPED PREFETCHES: 0
ITLB PREFETCHES SAME FILL-ORIGIN LEVEL: 0 DIFFERENT FILL-ORIGIN LEVEL: 0
ITLB AVERAGE MISS LATENCY: -nan cycles
ITLB RQ	ACCESS:   10248464	FORWARD:          0	MERGED:    1493683	TO_CACHE:    8754781

DTLB TOTAL     ACCESS:   13115467  HIT:   13111851  MISS:       3616  HIT %:    99.9724  MISS %:  0.0275705   MPKI: 0.07232
DTLB LOAD TRANSLATION ACCESS:   13115467  HIT:   13111851  MISS:       3616  HIT %:    99.9724  MISS %:  0.0275705   MPKI: 0.07232
DTLB PREFETCH  REQUESTED:          0  ISSUED:          0  USEFUL:          0  USELESS:          0
DTLB USEFUL LOAD PREFETCHES:          0 PREFETCH ISSUED TO LOWER LEVEL:          0  ACCURACY: -nan
DTLB TIMELY PREFETCHES:          0 LATE PREFETCHES: 0 DROPPED PREFETCHES: 0
DTLB PREFETCHES SAME FILL-ORIGIN LEVEL: 0 DIFFERENT FILL-ORIGIN LEVEL: 0
DTLB AVERAGE MISS LATENCY: 21.2959 cycles
DTLB RQ	ACCESS:   15452347	FORWARD:          0	MERGED:    2336690	TO_CACHE:   13115657

STLB TOTAL     ACCESS:       3616  HIT:       3329  MISS:        287  HIT %:    92.0631  MISS %:    7.93695   MPKI: 0.00574
STLB LOAD TRANSLATION ACCESS:       3616  HIT:       3329  MISS:        287  HIT %:    92.0631  MISS %:    7.93695   MPKI: 0.00574
STLB PREFETCH  REQUESTED:          0  ISSUED:          0  USEFUL:          0  USELESS:          0
STLB USEFUL LOAD PREFETCHES:          0 PREFETCH ISSUED TO LOWER LEVEL:          0  ACCURACY: -nan
STLB TIMELY PREFETCHES:          0 LATE PREFETCHES: 0 DROPPED PREFETCHES: 0
STLB PREFETCHES SAME FILL-ORIGIN LEVEL: 0 DIFFERENT FILL-ORIGIN LEVEL: 0
STLB AVERAGE MISS LATENCY: 152.672 cycles
STLB RQ	ACCESS:       3616	FORWARD:          0	MERGED:          0	TO_CACHE:       3616

STLB Hit, L1D data hit: 0
STLB Hit, L2C data hit: 0
STLB Hit, LLC data hit: 0
STLB Hit, LLC data miss: 0
STLB STLB hints to L2: 0
L1D TOTAL     ACCESS:   15451525  HIT:   15446965  MISS:       4560  HIT %:    99.9705  MISS %:  0.0295117   MPKI: 0.0912
L1D LOAD      ACCESS:    8778881  HIT:    8774557  MISS:       4324  HIT %:    99.9507  MISS %:  0.0492546   MPKI: 0.08648
L1D RFO       ACCESS:    6672644  HIT:    6672408  MISS:        236  HIT %:    99.9965  MISS %: 0.00353683   MPKI: 0.00472
L1D PREFETCH  REQUESTED:          0  ISSUED:          0  USEFUL:          0  USELESS:          0
L1D USEFUL LOAD PREFETCHES:          0 PREFETCH ISSUED TO LOWER LEVEL:          0  ACCURACY: -nan
L1D TIMELY PREFETCHES:          0 LATE PREFETCHES: 0 DROPPED PREFETCHES: 0
L1D PREFETCHES SAME FILL-ORIGIN LEVEL: 0 DIFFERENT FILL-ORIGIN LEVEL: 0
L1D AVERAGE MISS LATENCY: 166.197 cycles
L1D RQ	ACCESS:   12738144	FORWARD:          0	MERGED:    3811098	TO_CACHE:    8779156
L1D WQ	ACCESS:    7030375	FORWARD:     147890	MERGED:     357184	TO_CACHE:    6673191

L1D UNIQUE REGIONS ACCESSED: 0
L1D REGIONS CONFLICTS: 0
L1D Cross Page Prefetch Requests: 0
L1D Same Page Prefetch Requests: 0
L1D ROI Sum of L1D PQ occupancy: 0
L1D PREFETCHES PUSHED FROM L2C: 0
L1I TOTAL     ACCESS:   10247391  HIT:   10243702  MISS:       3689  HIT %:     99.964  MISS %:  0.0359994   MPKI: 0.07378
L1I LOAD      ACCESS:   10247391  HIT:   10243702  MISS:       3689  HIT %:     99.964  MISS %:  0.0359994   MPKI: 0.07378
L1I PREFETCH  REQUESTED:          0  ISSUED:          0  USEFUL:          0  USELESS:          0
L1I USEFUL LOAD PREFETCHES:          0 PREFETCH ISSUED TO LOWER LEVEL:          0  ACCURACY: -nan
L1I TIMELY PREFETCHES:          0 LATE PREFETCHES: 0 DROPPED PREFETCHES: 0
L1I PREFETCHES SAME FILL-ORIGIN LEVEL: 0 DIFFERENT FILL-ORIGIN LEVEL: 0
L1I AVERAGE MISS LATENCY: 14.3182 cycles
L1I RQ	ACCESS:   15257100	FORWARD:          0	MERGED:    5008636	TO_CACHE:   10248464

BTB TOTAL     ACCESS:    8738159  HIT:    8382820  MISS:     355339  HIT %:    95.9335  MISS %:    4.06652   MPKI: 7.10678
BTB BRANCH_DIRECT_JUMP	ACCESS:     819310  HIT:     819211  MISS:         99
BTB BRANCH_INDIRECT	ACCESS:     510194  HIT:     183565  MISS:     326629
BTB BRANCH_CONDITIONAL	ACCESS:    6549143  HIT:    6548831  MISS:        312
BTB BRANCH_DIRECT_CALL	ACCESS:     425501  HIT:     425427  MISS:         74
BTB BRANCH_INDIRECT_CALL	ACCESS:       4256  HIT:          0  MISS:       4256
BTB BRANCH_RETURN	ACCESS:     429755  HIT:     405786  MISS:      23969
BTB BRANCH_OTHER ACCESS:          0  HIT:          0  MISS:          0

L2C TOTAL     ACCESS:       9078  HIT:       4579  MISS:       4499  HIT %:    50.4406  MISS %:    49.5594   MPKI: 0.08998
L2C LOAD      ACCESS:       8013  HIT:       3749  MISS:       4264  HIT %:    46.7865  MISS %:    53.2135   MPKI: 0.08528
L2C DATA LOAD MPKI: 0.08474
L2C INSTRUCTION LOAD MPKI: 0.00054
L2C RFO       ACCESS:        236  HIT:         73  MISS:        163  HIT %:    30.9322  MISS %:    69.0678   MPKI: 0.00326
L2C WRITEBACK ACCESS:        542  HIT:        540  MISS:          2  HIT %:     99.631  MISS %:   0.369004   MPKI: 4e-05
L2C LOAD TRANSLATION ACCESS:        287  HIT:        217  MISS:         70  HIT %:    75.6098  MISS %:    24.3902   MPKI: 0.0014
L2C PREFETCH  REQUESTED:          0  ISSUED:          0  USEFUL:          0  USELESS:          0
L2C USEFUL LOAD PREFETCHES:          0 PREFETCH ISSUED TO LOWER LEVEL:          0  ACCURACY: -nan
L2C TIMELY PREFETCHES:          0 LATE PREFETCHES: 0 DROPPED PREFETCHES: 0
L2C PREFETCHES SAME FILL-ORIGIN LEVEL: 0 DIFFERENT FILL-ORIGIN LEVEL: 0
L2C AVERAGE MISS LATENCY: 156.805 cycles
L2C RQ	ACCESS:       8536	FORWARD:          0	MERGED:          0	TO_CACHE:       8536
L2C WQ	ACCESS:        542	FORWARD:          0	MERGED:          0	TO_CACHE:        542

L2C Instructions Evicting Data 10
L2C Translations Evicting Data 21
L2C Data Evicting Data 1556
L2C Instructions Evicting Instructions 2
L2C Translations Evicting Instructions 3
L2C Data Evicting Instructions 181
L2C Instructions Evicting Translations 1
L2C Translations Evicting Translations 0
L2C Data Evicting Translations 88
L2C Dense regions hint from L2: 0
PSCL5 TOTAL     ACCESS:        287  HIT:        287  MISS:          0  HIT %:        100  MISS %:          0   MPKI: 0
PSCL5 LOAD TRANSLATION ACCESS:        287  HIT:        287  MISS:          0  HIT %:        100  MISS %:          0   MPKI: 0
PSCL5 PREFETCH  REQUESTED:          0  ISSUED:          0  USEFUL:          0  USELESS:          0
PSCL5 USEFUL LOAD PREFETCHES:          0 PREFETCH ISSUED TO LOWER LEVEL:          0  ACCURACY: -nan
PSCL5 TIMELY PREFETCHES:          0 LATE PREFETCHES: 0 DROPPED PREFETCHES: 0
PSCL5 PREFETCHES SAME FILL-ORIGIN LEVEL: 0 DIFFERENT FILL-ORIGIN LEVEL: 0

PSCL4 TOTAL     ACCESS:        287  HIT:        287  MISS:          0  HIT %:        100  MISS %:          0   MPKI: 0
PSCL4 LOAD TRANSLATION ACCESS:        287  HIT:        287  MISS:          0  HIT %:        100  MISS %:          0   MPKI: 0
PSCL4 PREFETCH  REQUESTED:          0  ISSUED:          0  USEFUL:          0  USELESS:          0
PSCL4 USEFUL LOAD PREFETCHES:          0 PREFETCH ISSUED TO LOWER LEVEL:          0  ACCURACY: -nan
PSCL4 TIMELY PREFETCHES:          0 LATE PREFETCHES: 0 DROPPED PREFETCHES: 0
PSCL4 PREFETCHES SAME FILL-ORIGIN LEVEL: 0 DIFFERENT FILL-ORIGIN LEVEL: 0

PSCL3 TOTAL     ACCESS:        287  HIT:        287  MISS:          0  HIT %:        100  MISS %:          0   MPKI: 0
PSCL3 LOAD TRANSLATION ACCESS:        287  HIT:        287  MISS:          0  HIT %:        100  MISS %:          0   MPKI: 0
PSCL3 PREFETCH  REQUESTED:          0  ISSUED:          0  USEFUL:          0  USELESS:          0
PSCL3 USEFUL LOAD PREFETCHES:          0 PREFETCH ISSUED TO LOWER LEVEL:          0  ACCURACY: -nan
PSCL3 TIMELY PREFETCHES:          0 LATE PREFETCHES: 0 DROPPED PREFETCHES: 0
PSCL3 PREFETCHES SAME FILL-ORIGIN LEVEL: 0 DIFFERENT FILL-ORIGIN LEVEL: 0

PSCL2 TOTAL     ACCESS:        287  HIT:        287  MISS:          0  HIT %:        100  MISS %:          0   MPKI: 0
PSCL2 LOAD TRANSLATION ACCESS:        287  HIT:        287  MISS:          0  HIT %:        100  MISS %:          0   MPKI: 0
PSCL2 PREFETCH  REQUESTED:          0  ISSUED:          0  USEFUL:          0  USELESS:          0
PSCL2 USEFUL LOAD PREFETCHES:          0 PREFETCH ISSUED TO LOWER LEVEL:          0  ACCURACY: -nan
PSCL2 TIMELY PREFETCHES:          0 LATE PREFETCHES: 0 DROPPED PREFETCHES: 0
PSCL2 PREFETCHES SAME FILL-ORIGIN LEVEL: 0 DIFFERENT FILL-ORIGIN LEVEL: 0

LLC TOTAL     ACCESS:       4662  HIT:        189  MISS:       4473  HIT %:    4.05405  MISS %:    95.9459   MPKI: 0.08946
LLC LOAD      ACCESS:       4264  HIT:         11  MISS:       4253  HIT %:   0.257974  MISS %:     99.742   MPKI: 0.08506
LLC RFO       ACCESS:        163  HIT:          1  MISS:        162  HIT %:   0.613497  MISS %:    99.3865   MPKI: 0.00324
LLC WRITEBACK ACCESS:        165  HIT:        165  MISS:          0  HIT %:        100  MISS %:          0   MPKI: 0
LLC LOAD TRANSLATION ACCESS:         70  HIT:         12  MISS:         58  HIT %:    17.1429  MISS %:    82.8571   MPKI: 0.00116
LLC PREFETCH  REQUESTED:          0  ISSUED:          0  USEFUL:          0  USELESS:          0
LLC USEFUL LOAD PREFETCHES:          0 PREFETCH ISSUED TO LOWER LEVEL:          0  ACCURACY: -nan
LLC TIMELY PREFETCHES:          0 LATE PREFETCHES: 0 DROPPED PREFETCHES: 0
LLC PREFETCHES SAME FILL-ORIGIN LEVEL: 0 DIFFERENT FILL-ORIGIN LEVEL: 0
LLC AVERAGE MISS LATENCY: 127.496 cycles
LLC RQ	ACCESS:       4497	FORWARD:          0	MERGED:          0	TO_CACHE:       4497
LLC WQ	ACCESS:        165	FORWARD:          0	MERGED:          0	TO_CACHE:        165

LLC Dense regions hint to LLC: 0

RAW hits: 739113
Loads Generated: 13477257
Loads sent to L1D: 12738144
Stores Generated: 7030371
Stores sent to L1D: 7030375
Major fault: 0 Minor fault: 846
Allocated PAGES: 846

DRAM Statistics
 CHANNEL 0
 RQ ROW_BUFFER_HIT:       1912  ROW_BUFFER_MISS:       2561
 DBUS_CONGESTED:          0
 WQ ROW_BUFFER_HIT:          0  ROW_BUFFER_MISS:          0  FULL:          0

 AVG_CONGESTED_CYCLE: -
 All warmup complete: 2
Channel 0 Bank busy for read cycles: 0
Channel 0 Bank busy for write cycles: 0
Channel 0
Rank 0
0banks busy for read cycles: 124040639
0banks busy for write cycles: 0
1banks busy for read cycles: 431243
1banks busy for write cycles: 0
2banks busy for read cycles: 23255
2banks busy for write cycles: 0
3banks busy for read cycles: 622
3banks busy for write cycles: 0
4banks busy for read cycles: 29
4banks busy for write cycles: 0
5banks busy for read cycles: 3
5banks busy for write cycles: 0
6banks busy for read cycles: 0
6banks busy for write cycles: 0
7banks busy for read cycles: 0
7banks busy for write cycles: 0
8banks busy for read cycles: 0
8banks busy for write cycles: 0

CPU 0 Branch Prediction Accuracy: 95.4654% MPKI: 9.45396 Average ROB Occupancy at Mispredict: 33.0318
Branch types
NOT_BRANCH: 39575384 79.1508%
BRANCH_DIRECT_JUMP: 819310 1.63862%
BRANCH_INDIRECT: 510194 1.02039%
BRANCH_CONDITIONAL: 8235338 16.4707%
BRANCH_DIRECT_CALL: 425501 0.851002%
BRANCH_INDIRECT_CALL: 4256 0.008512%
BRANCH_RETURN: 429755 0.85951%
BRANCH_OTHER: 0 0%

DRAM PAGES: 1048576
Allocated PAGES: 846
