
*** ChampSim Multicore Out-of-Order Simulator ***

Warmup Instructions: 50000000
Simulation Instructions: 50000000
Number of CPUs: 1
LLC sets: 2048
LLC ways: 16
Off-chip DRAM Size: 4096 MB Channels: 1 Width: 64-bit Data Rate: 6400 MT/s
CPU 0 runs ./traces/SPEC-CPU2017/400.perlbench-50B.champsimtrace.xz
.xz
CPU 0 Bimodal branch predictor
BTB has LRU replacement policy
ITLB has LRU replacement policy
DTLB has LRU replacement policy
STLB has LRU replacement policy
L1I has LRU replacement policy
L1D has LRU replacement policy
L2C has LRU replacement policy
LLC has LRU replacement policy
Heartbeat CPU 0 instructions: 10000002 cycles: 3307152 heartbeat IPC: 3.02375 cumulative IPC: 3.02375 (Simulation time: 0 hr 5 min 10 sec) 
Heartbeat CPU 0 instructions: 20000000 cycles: 6462202 heartbeat IPC: 3.16952 cumulative IPC: 3.09492 (Simulation time: 0 hr 10 min 42 sec) 
Heartbeat CPU 0 instructions: 30000003 cycles: 9582944 heartbeat IPC: 3.20437 cumulative IPC: 3.13056 (Simulation time: 0 hr 16 min 9 sec) 
Heartbeat CPU 0 instructions: 40000000 cycles: 12684308 heartbeat IPC: 3.22439 cumulative IPC: 3.1535 (Simulation time: 0 hr 23 min 21 sec) 
Heartbeat CPU 0 instructions: 50000003 cycles: 15869717 heartbeat IPC: 3.13932 cumulative IPC: 3.15066 (Simulation time: 0 hr 29 min 16 sec) 

Warmup complete CPU 0 instructions: 50000003 cycles: 15869717 (Simulation time: 0 hr 29 min 16 sec) 

Heartbeat CPU 0 instructions: 60000000 cycles: 41925150 heartbeat IPC: 0.383797 cumulative IPC: 0.383797 (Simulation time: 0 hr 32 min 1 sec) 
Heartbeat CPU 0 instructions: 70000000 cycles: 65526121 heartbeat IPC: 0.423711 cumulative IPC: 0.402768 (Simulation time: 0 hr 34 min 1 sec) 
Heartbeat CPU 0 instructions: 80000000 cycles: 91055454 heartbeat IPC: 0.391706 cumulative IPC: 0.399012 (Simulation time: 0 hr 36 min 6 sec) 
Heartbeat CPU 0 instructions: 90000000 cycles: 115061010 heartbeat IPC: 0.41657 cumulative IPC: 0.403261 (Simulation time: 0 hr 38 min 12 sec) 
Heartbeat CPU 0 instructions: 100000000 cycles: 140101503 heartbeat IPC: 0.399353 cumulative IPC: 0.402473 (Simulation time: 0 hr 40 min 21 sec) 
Finished CPU 0 instructions: 50000000 cycles: 124231803 cumulative IPC: 0.402473 (Simulation time: 0 hr 40 min 21 sec) 

ChampSim completed all CPUs

Region of Interest Statistics

CPU 0 cumulative IPC: 0.402473 instructions: 50000000 cycles: 124231803
ITLB TOTAL     ACCESS:    8754781  HIT:    8754781  MISS:          0  HIT %:        100  MISS %:          0   MPKI: 0
ITLB LOAD TRANSLATION ACCESS:    8754781  HIT:    8754781  MISS:          0  HIT %:        100  MISS %:          0   MPKI: 0
ITLB PREFETCH  REQUESTED:          0  ISSUED:          0  USEFUL:          0  USELESS:          0
ITLB USEFUL LOAD PREFETCHES:          0 PREFETCH ISSUED TO LOWER LEVEL:          0  ACCURACY: -nan
ITLB TIMELY PREFETCHES:          0 LATE PREFETCHES: 0 DROPPED PREFETCHES: 0
ITLB PREFETCHES SAME FILL-ORIGIN LEVEL: 0 DIFFERENT FILL-ORIGIN LEVEL: 0
ITLB AVERAGE MISS LATENCY: -nan cycles
ITLB RQ	ACCESS:   10248464	FORWARD:          0	MERGED:    1493684	TO_CACHE:    8754780

DTLB TOTAL     ACCESS:   13115468  HIT:   13111853  MISS:       3615  HIT %:    99.9724  MISS %:  0.0275629   MPKI: 0.0723
DTLB LOAD TRANSLATION ACCESS:   13115468  HIT:   13111853  MISS:       3615  HIT %:    99.9724  MISS %:  0.0275629   MPKI: 0.0723
DTLB PREFETCH  REQUESTED:          0  ISSUED:          0  USEFUL:          0  USELESS:          0
DTLB USEFUL LOAD PREFETCHES:          0 PREFETCH ISSUED TO LOWER LEVEL:          0  ACCURACY: -nan
DTLB TIMELY PREFETCHES:          0 LATE PREFETCHES: 0 DROPPED PREFETCHES: 0
DTLB PREFETCHES SAME FILL-ORIGIN LEVEL: 0 DIFFERENT FILL-ORIGIN LEVEL: 0
DTLB AVERAGE MISS LATENCY: 21.2968 cycles
DTLB RQ	ACCESS:   15452419	FORWARD:          0	MERGED:    2336761	TO_CACHE:   13115658

STLB TOTAL     ACCESS:      64880  HIT:      64593  MISS:        287  HIT %:    99.5576  MISS %:   0.442355   MPKI: 0.00574
STLB LOAD TRANSLATION ACCESS:       3615  HIT:       3328  MISS:        287  HIT %:    92.0609  MISS %:    7.93914   MPKI: 0.00574
STLB TRANSLATION FROM L1D PREFETCHER ACCESS:      61265  HIT:      61265  MISS:          0  HIT %:        100  MISS %:          0   MPKI: 0
STLB PREFETCH  REQUESTED:          0  ISSUED:          0  USEFUL:          0  USELESS:          0
STLB USEFUL LOAD PREFETCHES:          0 PREFETCH ISSUED TO LOWER LEVEL:          0  ACCURACY: -nan
STLB TIMELY PREFETCHES:          0 LATE PREFETCHES: 0 DROPPED PREFETCHES: 0
STLB PREFETCHES SAME FILL-ORIGIN LEVEL: 0 DIFFERENT FILL-ORIGIN LEVEL: 0
STLB AVERAGE MISS LATENCY: 153.718 cycles
STLB RQ	ACCESS:      93137	FORWARD:          0	MERGED:      28257	TO_CACHE:      64880

STLB Hit, L1D data hit: 0
STLB Hit, L2C data hit: 0
STLB Hit, LLC data hit: 0
STLB Hit, LLC data miss: 0
STLB STLB hints to L2: 0
L1D TOTAL     ACCESS:   15541035  HIT:   15532967  MISS:       8068  HIT %:    99.9481  MISS %:  0.0519142   MPKI: 0.16136
L1D LOAD      ACCESS:    8779011  HIT:    8776187  MISS:       2824  HIT %:    99.9678  MISS %:  0.0321676   MPKI: 0.05648
L1D RFO       ACCESS:    6672614  HIT:    6672332  MISS:        282  HIT %:    99.9958  MISS %: 0.00422623   MPKI: 0.00564
L1D PREFETCH  ACCESS:      89410  HIT:      84448  MISS:       4962  HIT %:    94.4503  MISS %:    5.54971   MPKI: 0.09924
AGUS PREFETCH L1 MISS: 0
L1D PREFETCH  REQUESTED:     179256  ISSUED:     179044  USEFUL:       2023  USELESS:       2935
L1D USEFUL LOAD PREFETCHES:       2023 PREFETCH ISSUED TO LOWER LEVEL:       5053  ACCURACY: 40.0356
L1D TIMELY PREFETCHES:       2023 LATE PREFETCHES: 89 DROPPED PREFETCHES: 0
L1D PREFETCHES SAME FILL-ORIGIN LEVEL: 5053 DIFFERENT FILL-ORIGIN LEVEL: 0
L1D AVERAGE MISS LATENCY: 135.578 cycles
L1D RQ	ACCESS:   12738197	FORWARD:          0	MERGED:    3811055	TO_CACHE:    8779237
L1D WQ	ACCESS:    7030375	FORWARD:     147905	MERGED:     357193	TO_CACHE:    6673182
L1D PQ	ACCESS:      89522	FORWARD:          0	MERGED:          0	TO_CACHE:      89522

L1D UNIQUE REGIONS ACCESSED: 0
L1D REGIONS CONFLICTS: 0
L1D Cross Page Prefetch Requests: 14155
L1D Same Page Prefetch Requests: 175284
L1D ROI Sum of L1D PQ occupancy: 1170898
L1D PREFETCHES PUSHED FROM L2C: 0
L1I TOTAL     ACCESS:   10247390  HIT:   10243701  MISS:       3689  HIT %:     99.964  MISS %:  0.0359994   MPKI: 0.07378
L1I LOAD      ACCESS:   10247390  HIT:   10243701  MISS:       3689  HIT %:     99.964  MISS %:  0.0359994   MPKI: 0.07378
L1I PREFETCH  REQUESTED:          0  ISSUED:          0  USEFUL:          0  USELESS:          0
L1I USEFUL LOAD PREFETCHES:          0 PREFETCH ISSUED TO LOWER LEVEL:          0  ACCURACY: -nan
L1I TIMELY PREFETCHES:          0 LATE PREFETCHES: 0 DROPPED PREFETCHES: 0
L1I PREFETCHES SAME FILL-ORIGIN LEVEL: 0 DIFFERENT FILL-ORIGIN LEVEL: 0
L1I AVERAGE MISS LATENCY: 14.4299 cycles
L1I RQ	ACCESS:   15257104	FORWARD:          0	MERGED:    5008640	TO_CACHE:   10248464

BTB TOTAL     ACCESS:    8738159  HIT:    8382820  MISS:     355339  HIT %:    95.9335  MISS %:    4.06652   MPKI: 7.10678
BTB BRANCH_DIRECT_JUMP	ACCESS:     819310  HIT:     819211  MISS:         99
BTB BRANCH_INDIRECT	ACCESS:     510194  HIT:     183565  MISS:     326629
BTB BRANCH_CONDITIONAL	ACCESS:    6549143  HIT:    6548831  MISS:        312
BTB BRANCH_DIRECT_CALL	ACCESS:     425501  HIT:     425427  MISS:         74
BTB BRANCH_INDIRECT_CALL	ACCESS:       4256  HIT:          0  MISS:       4256
BTB BRANCH_RETURN	ACCESS:     429755  HIT:     405786  MISS:      23969
BTB BRANCH_OTHER ACCESS:          0  HIT:          0  MISS:          0

L2C TOTAL     ACCESS:      12656  HIT:       6283  MISS:       6373  HIT %:    49.6444  MISS %:    50.3556   MPKI: 0.12746
L2C LOAD      ACCESS:       6424  HIT:       3825  MISS:       2599  HIT %:    59.5423  MISS %:    40.4577   MPKI: 0.05198
L2C DATA LOAD MPKI: 0.0511
L2C INSTRUCTION LOAD MPKI: 0.00088
L2C RFO       ACCESS:        280  HIT:        138  MISS:        142  HIT %:    49.2857  MISS %:    50.7143   MPKI: 0.00284
L2C PREFETCH  ACCESS:       5053  HIT:       1506  MISS:       3547  HIT %:    29.8041  MISS %:    70.1959   MPKI: 0.07094
AGUS PREFETCH L1 MISS: 0
L2C DATA PREFETCH MPKI: 0.07094
L2C INSTRUCTION PREFETCH MPKI: 0
L2C WRITEBACK ACCESS:        612  HIT:        607  MISS:          5  HIT %:     99.183  MISS %:   0.816993   MPKI: 0.0001
L2C LOAD TRANSLATION ACCESS:        287  HIT:        207  MISS:         80  HIT %:    72.1254  MISS %:    27.8746   MPKI: 0.0016
L2C PREFETCH  REQUESTED:          0  ISSUED:          0  USEFUL:         82  USELESS:       2507
L2C USEFUL LOAD PREFETCHES:         82 PREFETCH ISSUED TO LOWER LEVEL:       3547  ACCURACY: 2.31181
L2C TIMELY PREFETCHES:         82 LATE PREFETCHES: 0 DROPPED PREFETCHES: 0
L2C PREFETCHES SAME FILL-ORIGIN LEVEL: 0 DIFFERENT FILL-ORIGIN LEVEL: 0
L2C AVERAGE MISS LATENCY: 154.989 cycles
L2C RQ	ACCESS:       6991	FORWARD:          0	MERGED:          0	TO_CACHE:       6991
L2C WQ	ACCESS:        612	FORWARD:          0	MERGED:          0	TO_CACHE:        612
L2C PQ	ACCESS:       5053	FORWARD:          0	MERGED:          0	TO_CACHE:       5053

L2C Instructions Evicting Data 34
L2C Translations Evicting Data 55
L2C Data Evicting Data 4358
L2C Instructions Evicting Instructions 0
L2C Translations Evicting Instructions 0
L2C Data Evicting Instructions 219
L2C Instructions Evicting Translations 1
L2C Translations Evicting Translations 0
L2C Data Evicting Translations 138
L2C Dense regions hint from L2: 0
PSCL5 TOTAL     ACCESS:        287  HIT:        287  MISS:          0  HIT %:        100  MISS %:          0   MPKI: 0
PSCL5 LOAD TRANSLATION ACCESS:        287  HIT:        287  MISS:          0  HIT %:        100  MISS %:          0   MPKI: 0
PSCL5 PREFETCH  REQUESTED:          0  ISSUED:          0  USEFUL:          0  USELESS:          0
PSCL5 USEFUL LOAD PREFETCHES:          0 PREFETCH ISSUED TO LOWER LEVEL:          0  ACCURACY: -nan
PSCL5 TIMELY PREFETCHES:          0 LATE PREFETCHES: 0 DROPPED PREFETCHES: 0
PSCL5 PREFETCHES SAME FILL-ORIGIN LEVEL: 0 DIFFERENT FILL-ORIGIN LEVEL: 0

PSCL4 TOTAL     ACCESS:        287  HIT:        287  MISS:          0  HIT %:        100  MISS %:          0   MPKI: 0
PSCL4 LOAD TRANSLATION ACCESS:        287  HIT:        287  MISS:          0  HIT %:        100  MISS %:          0   MPKI: 0
PSCL4 PREFETCH  REQUESTED:          0  ISSUED:          0  USEFUL:          0  USELESS:          0
PSCL4 USEFUL LOAD PREFETCHES:          0 PREFETCH ISSUED TO LOWER LEVEL:          0  ACCURACY: -nan
PSCL4 TIMELY PREFETCHES:          0 LATE PREFETCHES: 0 DROPPED PREFETCHES: 0
PSCL4 PREFETCHES SAME FILL-ORIGIN LEVEL: 0 DIFFERENT FILL-ORIGIN LEVEL: 0

PSCL3 TOTAL     ACCESS:        287  HIT:        287  MISS:          0  HIT %:        100  MISS %:          0   MPKI: 0
PSCL3 LOAD TRANSLATION ACCESS:        287  HIT:        287  MISS:          0  HIT %:        100  MISS %:          0   MPKI: 0
PSCL3 PREFETCH  REQUESTED:          0  ISSUED:          0  USEFUL:          0  USELESS:          0
PSCL3 USEFUL LOAD PREFETCHES:          0 PREFETCH ISSUED TO LOWER LEVEL:          0  ACCURACY: -nan
PSCL3 TIMELY PREFETCHES:          0 LATE PREFETCHES: 0 DROPPED PREFETCHES: 0
PSCL3 PREFETCHES SAME FILL-ORIGIN LEVEL: 0 DIFFERENT FILL-ORIGIN LEVEL: 0

PSCL2 TOTAL     ACCESS:        287  HIT:        287  MISS:          0  HIT %:        100  MISS %:          0   MPKI: 0
PSCL2 LOAD TRANSLATION ACCESS:        287  HIT:        287  MISS:          0  HIT %:        100  MISS %:          0   MPKI: 0
PSCL2 PREFETCH  REQUESTED:          0  ISSUED:          0  USEFUL:          0  USELESS:          0
PSCL2 USEFUL LOAD PREFETCHES:          0 PREFETCH ISSUED TO LOWER LEVEL:          0  ACCURACY: -nan
PSCL2 TIMELY PREFETCHES:          0 LATE PREFETCHES: 0 DROPPED PREFETCHES: 0
PSCL2 PREFETCHES SAME FILL-ORIGIN LEVEL: 0 DIFFERENT FILL-ORIGIN LEVEL: 0

LLC TOTAL     ACCESS:       6670  HIT:        459  MISS:       6211  HIT %:    6.88156  MISS %:    93.1184   MPKI: 0.12422
LLC LOAD      ACCESS:       2599  HIT:         43  MISS:       2556  HIT %:    1.65448  MISS %:    98.3455   MPKI: 0.05112
LLC RFO       ACCESS:        142  HIT:          1  MISS:        141  HIT %:   0.704225  MISS %:    99.2958   MPKI: 0.00282
LLC PREFETCH  ACCESS:       3547  HIT:         91  MISS:       3456  HIT %:    2.56555  MISS %:    97.4345   MPKI: 0.06912
AGUS PREFETCH L1 MISS: 0
LLC WRITEBACK ACCESS:        302  HIT:        302  MISS:          0  HIT %:        100  MISS %:          0   MPKI: 0
LLC LOAD TRANSLATION ACCESS:         80  HIT:         22  MISS:         58  HIT %:       27.5  MISS %:       72.5   MPKI: 0.00116
LLC PREFETCH  REQUESTED:          0  ISSUED:          0  USEFUL:          9  USELESS:          0
LLC USEFUL LOAD PREFETCHES:          9 PREFETCH ISSUED TO LOWER LEVEL:       3456  ACCURACY: 0.260417
LLC TIMELY PREFETCHES:          9 LATE PREFETCHES: 0 DROPPED PREFETCHES: 0
LLC PREFETCHES SAME FILL-ORIGIN LEVEL: 0 DIFFERENT FILL-ORIGIN LEVEL: 0
LLC AVERAGE MISS LATENCY: 128.062 cycles
LLC RQ	ACCESS:       2821	FORWARD:          0	MERGED:          0	TO_CACHE:       2821
LLC WQ	ACCESS:        302	FORWARD:          0	MERGED:          0	TO_CACHE:        302
LLC PQ	ACCESS:       3547	FORWARD:          0	MERGED:          0	TO_CACHE:       3547

LLC Dense regions hint to LLC: 0

RAW hits: 739060
Loads Generated: 13477257
Loads sent to L1D: 12738197
Stores Generated: 7030371
Stores sent to L1D: 7030375
Major fault: 0 Minor fault: 846
Allocated PAGES: 846

stream: 
stream:times selected: 1183818
stream:pref_reqs: 2315813
stream:pref_reqs_filtered_out: 2227218
stream:pref_filled: 6554
stream:pref_useful: 2789
stream:pref_late: 77
stream:misses: 192
stream:misses_by_poll: 0

CS: 
CS:times selected: 89942
CS:pref_reqs: 269234
CS:pref_reqs_filtered_out: 251742
CS:pref_filled: 953
CS:pref_useful: 731
CS:pref_late: 0
CS:misses: 5
CS:misses_by_poll: 0

CPLX: 
CPLX:times selected: 1093683
CPLX:pref_reqs: 1441476
CPLX:pref_reqs_filtered_out: 1389262
CPLX:pref_filled: 2205
CPLX:pref_useful: 435
CPLX:pref_late: 13
CPLX:misses: 1377
CPLX:misses_by_poll: 1

ISB: 
ISB:total access:14002245
ISB:times selected:5173398
ISB:canary counter:0
ISB:pref_reqs: 1949902
ISB:pref_reqs_filtered_out: 1916116
ISB:pref_filled: 446
ISB:pref_useful: 223
ISB:pref_late: 0
ISB:misses: 713
ISB:misses_by_poll: 0
ISB:Stream end: 4042611
ISB:No Prediction: 8828847 63.0531
ISB:No translation: 4030203194
ISB:Predictions: 32020 0.228678

NL_L1: 
NL:times selected: 312
NL:pref_reqs: 312
NL:pref_reqs_filtered_out: 255
NL:pref_filled: 19
NL:pref_useful: 8
NL:pref_late: 1
NL:misses: 14
NL:misses_by_poll: 0

Coverage: 41.7372
total selections: 7541153
total_filled: 4962
total_useful: 2023
total_late: 93
total_polluted: 1
total_misses_after_warmup: 3050
conflicts: 1350632

test: 0
ISB Prefetcher final stats
Prefetcher final stats
Training Unit Size: 223
Addr table size: 5145 5146
Triggers: 14002245
Structural address exists: 5173398 36.9469
No Prediction: 8828847 63.0531
Prefetches issued: 32020 0.228678
Stream end: 4042611
No translation: 4030203194
%Stream divergence: 124 0.000885572
Stream divergence -- new stream: 0
A: 0
B: 0
C: 1183823
D: 1183823
E: 1183823
F: 0
G: 0

DRAM Statistics
 CHANNEL 0
 RQ ROW_BUFFER_HIT:       2700  ROW_BUFFER_MISS:       3511
 DBUS_CONGESTED:          0
 WQ ROW_BUFFER_HIT:          0  ROW_BUFFER_MISS:          0  FULL:          0

 AVG_CONGESTED_CYCLE: -
 All warmup complete: 2
Channel 0 Bank busy for read cycles: 0
Channel 0 Bank busy for write cycles: 0
Channel 0
Rank 0
0banks busy for read cycles: 123809806
0banks busy for write cycles: 0
1banks busy for read cycles: 267906
1banks busy for write cycles: 0
2banks busy for read cycles: 83240
2banks busy for write cycles: 0
3banks busy for read cycles: 57704
3banks busy for write cycles: 0
4banks busy for read cycles: 11652
4banks busy for write cycles: 0
5banks busy for read cycles: 1432
5banks busy for write cycles: 0
6banks busy for read cycles: 64
6banks busy for write cycles: 0
7banks busy for read cycles: 0
7banks busy for write cycles: 0
8banks busy for read cycles: 0
8banks busy for write cycles: 0

CPU 0 Branch Prediction Accuracy: 95.4654% MPKI: 9.45396 Average ROB Occupancy at Mispredict: 33.0282
Branch types
NOT_BRANCH: 39575384 79.1508%
BRANCH_DIRECT_JUMP: 819310 1.63862%
BRANCH_INDIRECT: 510194 1.02039%
BRANCH_CONDITIONAL: 8235338 16.4707%
BRANCH_DIRECT_CALL: 425501 0.851002%
BRANCH_INDIRECT_CALL: 4256 0.008512%
BRANCH_RETURN: 429755 0.85951%
BRANCH_OTHER: 0 0%

DRAM PAGES: 1048576
Allocated PAGES: 846
