
*** ChampSim Multicore Out-of-Order Simulator ***

Warmup Instructions: 50000000
Simulation Instructions: 50000000
Number of CPUs: 1
LLC sets: 2048
LLC ways: 16
Off-chip DRAM Size: 4096 MB Channels: 1 Width: 64-bit Data Rate: 6400 MT/s
CPU 0 runs ./traces/SPEC-CPU2017/401.bzip2-226B.champsimtrace.xz
.xz
CPU 0 Bimodal branch predictor
BTB has LRU replacement policy
ITLB has LRU replacement policy
DTLB has LRU replacement policy
STLB has LRU replacement policy
L1I has LRU replacement policy
L1D has LRU replacement policy
L2C has LRU replacement policy
LLC has LRU replacement policy
Heartbeat CPU 0 instructions: 10000003 cycles: 3089416 heartbeat IPC: 3.23686 cumulative IPC: 3.23686 (Simulation time: 0 hr 4 min 58 sec) 
Heartbeat CPU 0 instructions: 20000000 cycles: 6242685 heartbeat IPC: 3.17131 cumulative IPC: 3.20375 (Simulation time: 0 hr 11 min 39 sec) 
Heartbeat CPU 0 instructions: 30000001 cycles: 9404231 heartbeat IPC: 3.16301 cumulative IPC: 3.19005 (Simulation time: 0 hr 17 min 50 sec) 
Heartbeat CPU 0 instructions: 40000000 cycles: 12177106 heartbeat IPC: 3.60636 cumulative IPC: 3.28485 (Simulation time: 0 hr 23 min 8 sec) 
Heartbeat CPU 0 instructions: 50000000 cycles: 15021975 heartbeat IPC: 3.5151 cumulative IPC: 3.32846 (Simulation time: 0 hr 30 min 4 sec) 

Warmup complete CPU 0 instructions: 50000004 cycles: 15021976 (Simulation time: 0 hr 30 min 4 sec) 

Heartbeat CPU 0 instructions: 60000000 cycles: 28936439 heartbeat IPC: 0.718677 cumulative IPC: 0.718676 (Simulation time: 0 hr 32 min 57 sec) 
Heartbeat CPU 0 instructions: 70000002 cycles: 43160975 heartbeat IPC: 0.703011 cumulative IPC: 0.710757 (Simulation time: 0 hr 35 min 0 sec) 
Heartbeat CPU 0 instructions: 80000000 cycles: 58786160 heartbeat IPC: 0.639992 cumulative IPC: 0.685492 (Simulation time: 0 hr 37 min 1 sec) 
Heartbeat CPU 0 instructions: 90000003 cycles: 74002229 heartbeat IPC: 0.6572 cumulative IPC: 0.678193 (Simulation time: 0 hr 39 min 3 sec) 
Heartbeat CPU 0 instructions: 100000000 cycles: 88041987 heartbeat IPC: 0.712263 cumulative IPC: 0.684744 (Simulation time: 0 hr 41 min 7 sec) 
Finished CPU 0 instructions: 50000003 cycles: 73020025 cumulative IPC: 0.684744 (Simulation time: 0 hr 41 min 7 sec) 

ChampSim completed all CPUs

Region of Interest Statistics

CPU 0 cumulative IPC: 0.684744 instructions: 50000003 cycles: 73020025
ITLB TOTAL     ACCESS:    7590697  HIT:    7590697  MISS:          0  HIT %:        100  MISS %:          0   MPKI: 0
ITLB LOAD TRANSLATION ACCESS:    7590697  HIT:    7590697  MISS:          0  HIT %:        100  MISS %:          0   MPKI: 0
ITLB PREFETCH  REQUESTED:          0  ISSUED:          0  USEFUL:          0  USELESS:          0
ITLB USEFUL LOAD PREFETCHES:          0 PREFETCH ISSUED TO LOWER LEVEL:          0  ACCURACY: -nan
ITLB TIMELY PREFETCHES:          0 LATE PREFETCHES: 0 DROPPED PREFETCHES: 0
ITLB PREFETCHES SAME FILL-ORIGIN LEVEL: 0 DIFFERENT FILL-ORIGIN LEVEL: 0
ITLB AVERAGE MISS LATENCY: -nan cycles
ITLB RQ	ACCESS:    8706940	FORWARD:          0	MERGED:    1116243	TO_CACHE:    7590697

DTLB TOTAL     ACCESS:   10639177  HIT:   10366441  MISS:     272736  HIT %:    97.4365  MISS %:    2.56351   MPKI: 5.45472
DTLB LOAD TRANSLATION ACCESS:   10639177  HIT:   10366441  MISS:     272736  HIT %:    97.4365  MISS %:    2.56351   MPKI: 5.45472
DTLB PREFETCH  REQUESTED:          0  ISSUED:          0  USEFUL:          0  USELESS:          0
DTLB USEFUL LOAD PREFETCHES:          0 PREFETCH ISSUED TO LOWER LEVEL:          0  ACCURACY: -nan
DTLB TIMELY PREFETCHES:          0 LATE PREFETCHES: 0 DROPPED PREFETCHES: 0
DTLB PREFETCHES SAME FILL-ORIGIN LEVEL: 0 DIFFERENT FILL-ORIGIN LEVEL: 0
DTLB AVERAGE MISS LATENCY: 9.05288 cycles
DTLB RQ	ACCESS:   13335520	FORWARD:          0	MERGED:    2679397	TO_CACHE:   10656123

STLB TOTAL     ACCESS:    1805676  HIT:    1805676  MISS:          0  HIT %:        100  MISS %:          0   MPKI: 0
STLB LOAD TRANSLATION ACCESS:     272736  HIT:     272736  MISS:          0  HIT %:        100  MISS %:          0   MPKI: 0
STLB TRANSLATION FROM L1D PREFETCHER ACCESS:    1532940  HIT:    1532940  MISS:          0  HIT %:        100  MISS %:          0   MPKI: 0
STLB PREFETCH  REQUESTED:          0  ISSUED:          0  USEFUL:          0  USELESS:          0
STLB USEFUL LOAD PREFETCHES:          0 PREFETCH ISSUED TO LOWER LEVEL:          0  ACCURACY: -nan
STLB TIMELY PREFETCHES:          0 LATE PREFETCHES: 0 DROPPED PREFETCHES: 0
STLB PREFETCHES SAME FILL-ORIGIN LEVEL: 0 DIFFERENT FILL-ORIGIN LEVEL: 0
STLB AVERAGE MISS LATENCY: -nan cycles
STLB RQ	ACCESS:    2389438	FORWARD:          0	MERGED:     583762	TO_CACHE:    1805676

STLB Hit, L1D data hit: 0
STLB Hit, L2C data hit: 0
STLB Hit, LLC data hit: 0
STLB Hit, LLC data miss: 0
STLB STLB hints to L2: 0
L1D TOTAL     ACCESS:   15289164  HIT:   13923635  MISS:    1365529  HIT %:    91.0686  MISS %:    8.93135   MPKI: 27.3106
L1D LOAD      ACCESS:    9185107  HIT:    8710144  MISS:     474963  HIT %:     94.829  MISS %:    5.17101   MPKI: 9.49926
L1D RFO       ACCESS:    4050468  HIT:    3942776  MISS:     107692  HIT %:    97.3412  MISS %:    2.65875   MPKI: 2.15384
L1D PREFETCH  ACCESS:    2053589  HIT:    1270715  MISS:     782874  HIT %:    61.8778  MISS %:    38.1222   MPKI: 15.6575
AGUS PREFETCH L1 MISS: 0
L1D PREFETCH  REQUESTED:    4329566  ISSUED:    4233645  USEFUL:     121279  USELESS:     662007
L1D USEFUL LOAD PREFETCHES:     121279 PREFETCH ISSUED TO LOWER LEVEL:     797151  ACCURACY: 15.2141
L1D TIMELY PREFETCHES:     121279 LATE PREFETCHES: 14277 DROPPED PREFETCHES: 0
L1D PREFETCHES SAME FILL-ORIGIN LEVEL: 797151 DIFFERENT FILL-ORIGIN LEVEL: 0
L1D AVERAGE MISS LATENCY: 31.7364 cycles
L1D RQ	ACCESS:   17601951	FORWARD:          0	MERGED:    8266397	TO_CACHE:    9231670
L1D WQ	ACCESS:    4533576	FORWARD:     104125	MERGED:     429726	TO_CACHE:    4103850
L1D PQ	ACCESS:    2116943	FORWARD:          0	MERGED:          0	TO_CACHE:    2116702

L1D UNIQUE REGIONS ACCESSED: 0
L1D REGIONS CONFLICTS: 0
L1D Cross Page Prefetch Requests: 982911
L1D Same Page Prefetch Requests: 3456706
L1D ROI Sum of L1D PQ occupancy: 28160784
L1D PREFETCHES PUSHED FROM L2C: 0
L1I TOTAL     ACCESS:    8706939  HIT:    8706939  MISS:          0  HIT %:        100  MISS %:          0   MPKI: 0
L1I LOAD      ACCESS:    8706939  HIT:    8706939  MISS:          0  HIT %:        100  MISS %:          0   MPKI: 0
L1I PREFETCH  REQUESTED:          0  ISSUED:          0  USEFUL:          0  USELESS:          0
L1I USEFUL LOAD PREFETCHES:          0 PREFETCH ISSUED TO LOWER LEVEL:          0  ACCURACY: -nan
L1I TIMELY PREFETCHES:          0 LATE PREFETCHES: 0 DROPPED PREFETCHES: 0
L1I PREFETCHES SAME FILL-ORIGIN LEVEL: 0 DIFFERENT FILL-ORIGIN LEVEL: 0
L1I AVERAGE MISS LATENCY: -nan cycles
L1I RQ	ACCESS:   12721496	FORWARD:          0	MERGED:    4014556	TO_CACHE:    8706940

BTB TOTAL     ACCESS:    7871105  HIT:    7694621  MISS:     176484  HIT %:    97.7578  MISS %:    2.24218   MPKI: 3.52968
BTB BRANCH_DIRECT_JUMP	ACCESS:     517023  HIT:     517009  MISS:         14
BTB BRANCH_INDIRECT	ACCESS:          0  HIT:          0  MISS:          0
BTB BRANCH_CONDITIONAL	ACCESS:    6663904  HIT:    6663823  MISS:         81
BTB BRANCH_DIRECT_CALL	ACCESS:     345089  HIT:     345086  MISS:          3
BTB BRANCH_INDIRECT_CALL	ACCESS:          0  HIT:          0  MISS:          0
BTB BRANCH_RETURN	ACCESS:     345089  HIT:     168703  MISS:     176386
BTB BRANCH_OTHER ACCESS:          0  HIT:          0  MISS:          0

L2C TOTAL     ACCESS:    1504556  HIT:    1074762  MISS:     429794  HIT %:    71.4338  MISS %:    28.5662   MPKI: 8.59588
L2C LOAD      ACCESS:     460685  HIT:     350839  MISS:     109846  HIT %:    76.1559  MISS %:    23.8441   MPKI: 2.19692
L2C DATA LOAD MPKI: 2.19692
L2C INSTRUCTION LOAD MPKI: 0
L2C RFO       ACCESS:     107683  HIT:      21315  MISS:      86368  HIT %:    19.7942  MISS %:    80.2058   MPKI: 1.72736
L2C PREFETCH  ACCESS:     797140  HIT:     563604  MISS:     233536  HIT %:    70.7033  MISS %:    29.2967   MPKI: 4.67072
AGUS PREFETCH L1 MISS: 0
L2C DATA PREFETCH MPKI: 4.67072
L2C INSTRUCTION PREFETCH MPKI: 0
L2C WRITEBACK ACCESS:     139048  HIT:     139004  MISS:         44  HIT %:    99.9684  MISS %:  0.0316437   MPKI: 0.00088
L2C PREFETCH  REQUESTED:          0  ISSUED:          0  USEFUL:      40475  USELESS:     194858
L2C USEFUL LOAD PREFETCHES:      40475 PREFETCH ISSUED TO LOWER LEVEL:     233536  ACCURACY: 17.3314
L2C TIMELY PREFETCHES:      40475 LATE PREFETCHES: 0 DROPPED PREFETCHES: 0
L2C PREFETCHES SAME FILL-ORIGIN LEVEL: 0 DIFFERENT FILL-ORIGIN LEVEL: 0
L2C AVERAGE MISS LATENCY: 52.5037 cycles
L2C RQ	ACCESS:     568380	FORWARD:          0	MERGED:          0	TO_CACHE:     568370
L2C WQ	ACCESS:     139049	FORWARD:         21	MERGED:          0	TO_CACHE:     139049
L2C PQ	ACCESS:     797151	FORWARD:          0	MERGED:          0	TO_CACHE:     797140

L2C Instructions Evicting Data 0
L2C Translations Evicting Data 0
L2C Data Evicting Data 429750
L2C Instructions Evicting Instructions 0
L2C Translations Evicting Instructions 0
L2C Data Evicting Instructions 0
L2C Instructions Evicting Translations 0
L2C Translations Evicting Translations 0
L2C Data Evicting Translations 0
L2C Dense regions hint from L2: 0
PSCL5 PREFETCH  REQUESTED:          0  ISSUED:          0  USEFUL:          0  USELESS:          0
PSCL5 USEFUL LOAD PREFETCHES:          0 PREFETCH ISSUED TO LOWER LEVEL:          0  ACCURACY: -nan
PSCL5 TIMELY PREFETCHES:          0 LATE PREFETCHES: 0 DROPPED PREFETCHES: 0
PSCL5 PREFETCHES SAME FILL-ORIGIN LEVEL: 0 DIFFERENT FILL-ORIGIN LEVEL: 0

PSCL4 PREFETCH  REQUESTED:          0  ISSUED:          0  USEFUL:          0  USELESS:          0
PSCL4 USEFUL LOAD PREFETCHES:          0 PREFETCH ISSUED TO LOWER LEVEL:          0  ACCURACY: -nan
PSCL4 TIMELY PREFETCHES:          0 LATE PREFETCHES: 0 DROPPED PREFETCHES: 0
PSCL4 PREFETCHES SAME FILL-ORIGIN LEVEL: 0 DIFFERENT FILL-ORIGIN LEVEL: 0

PSCL3 PREFETCH  REQUESTED:          0  ISSUED:          0  USEFUL:          0  USELESS:          0
PSCL3 USEFUL LOAD PREFETCHES:          0 PREFETCH ISSUED TO LOWER LEVEL:          0  ACCURACY: -nan
PSCL3 TIMELY PREFETCHES:          0 LATE PREFETCHES: 0 DROPPED PREFETCHES: 0
PSCL3 PREFETCHES SAME FILL-ORIGIN LEVEL: 0 DIFFERENT FILL-ORIGIN LEVEL: 0

PSCL2 PREFETCH  REQUESTED:          0  ISSUED:          0  USEFUL:          0  USELESS:          0
PSCL2 USEFUL LOAD PREFETCHES:          0 PREFETCH ISSUED TO LOWER LEVEL:          0  ACCURACY: -nan
PSCL2 TIMELY PREFETCHES:          0 LATE PREFETCHES: 0 DROPPED PREFETCHES: 0
PSCL2 PREFETCHES SAME FILL-ORIGIN LEVEL: 0 DIFFERENT FILL-ORIGIN LEVEL: 0

LLC TOTAL     ACCESS:     537219  HIT:     491420  MISS:      45799  HIT %:    91.4748  MISS %:     8.5252   MPKI: 0.91598
LLC LOAD      ACCESS:     109846  HIT:     101863  MISS:       7983  HIT %:    92.7326  MISS %:    7.26745   MPKI: 0.15966
LLC RFO       ACCESS:      86367  HIT:      67326  MISS:      19041  HIT %:    77.9534  MISS %:    22.0466   MPKI: 0.38082
LLC PREFETCH  ACCESS:     233536  HIT:     214764  MISS:      18772  HIT %:    91.9618  MISS %:    8.03816   MPKI: 0.37544
AGUS PREFETCH L1 MISS: 0
LLC WRITEBACK ACCESS:     107470  HIT:     107467  MISS:          3  HIT %:    99.9972  MISS %: 0.00279148   MPKI: 6e-05
LLC PREFETCH  REQUESTED:          0  ISSUED:          0  USEFUL:      12934  USELESS:      10625
LLC USEFUL LOAD PREFETCHES:      12934 PREFETCH ISSUED TO LOWER LEVEL:      18772  ACCURACY: 68.9005
LLC TIMELY PREFETCHES:      12934 LATE PREFETCHES: 0 DROPPED PREFETCHES: 0
LLC PREFETCHES SAME FILL-ORIGIN LEVEL: 0 DIFFERENT FILL-ORIGIN LEVEL: 0
LLC AVERAGE MISS LATENCY: 211.181 cycles
LLC RQ	ACCESS:     196216	FORWARD:          0	MERGED:          0	TO_CACHE:     196214
LLC WQ	ACCESS:     107470	FORWARD:          2	MERGED:          0	TO_CACHE:     107470
LLC PQ	ACCESS:     233536	FORWARD:          0	MERGED:          0	TO_CACHE:     233536

LLC Dense regions hint to LLC: 0

RAW hits: 1160666
Loads Generated: 18762619
Loads sent to L1D: 17601951
Stores Generated: 4533564
Stores sent to L1D: 4533576
Major fault: 0 Minor fault: 1408
Allocated PAGES: 1408

stream: 
stream:times selected: 4826113
stream:pref_reqs: 6924183
stream:pref_reqs_filtered_out: 4294051
stream:pref_filled: 799490
stream:pref_useful: 56267
stream:pref_late: 2536
stream:misses: 12584
stream:misses_by_poll: 0

CS: 
CS:times selected: 353861
CS:pref_reqs: 971990
CS:pref_reqs_filtered_out: 587174
CS:pref_filled: 124867
CS:pref_useful: 104246
CS:pref_late: 7423
CS:misses: 3999
CS:misses_by_poll: 48

CPLX: 
CPLX:times selected: 4395582
CPLX:pref_reqs: 400753
CPLX:pref_reqs_filtered_out: 183733
CPLX:pref_filled: 120434
CPLX:pref_useful: 8312
CPLX:pref_late: 2326
CPLX:misses: 44743
CPLX:misses_by_poll: 196

ISB: 
ISB:total access:16464272
ISB:times selected:6597142
ISB:canary counter:0
ISB:pref_reqs: 4337514
ISB:pref_reqs_filtered_out: 2866900
ISB:pref_filled: 293352
ISB:pref_useful: 115504
ISB:pref_late: 12903
ISB:misses: 602850
ISB:misses_by_poll: 790
ISB:Stream end: 2917327
ISB:No Prediction: 9867130 59.9306
ISB:No translation: 2967712481
ISB:Predictions: 1376568 8.36094

NL_L1: 
NL:times selected: 41323
NL:pref_reqs: 41323
NL:pref_reqs_filtered_out: 12114
NL:pref_filled: 5041
NL:pref_useful: 411
NL:pref_late: 13
NL:misses: 3682
NL:misses_by_poll: 0

Coverage: 20.3406
total selections: 16214021
total_filled: 782874
total_useful: 121279
total_late: 27467
total_polluted: 1034
total_misses_after_warmup: 521524
conflicts: 1260925

test: 0
ISB Prefetcher final stats
Prefetcher final stats
Training Unit Size: 168
Addr table size: 30673 30770
Triggers: 16464272
Structural address exists: 6597142 40.0694
No Prediction: 9867130 59.9306
Prefetches issued: 1376568 8.36094
Stream end: 2917327
No translation: 2967712481
%Stream divergence: 180310 1.09516
Stream divergence -- new stream: 0
A: 0
B: 0
C: 4826117
D: 4826117
E: 4826117
F: 0
G: 0

DRAM Statistics
 CHANNEL 0
 RQ ROW_BUFFER_HIT:       4267  ROW_BUFFER_MISS:      41446
 DBUS_CONGESTED:          9
 WQ ROW_BUFFER_HIT:       6599  ROW_BUFFER_MISS:      30595  FULL:          0

 AVG_CONGESTED_CYCLE: 6
 All warmup complete: 2
Channel 0 Bank busy for read cycles: 0
Channel 0 Bank busy for write cycles: 0
Channel 0
Rank 0
0banks busy for read cycles: 65275213
0banks busy for write cycles: 14450
1banks busy for read cycles: 3324638
1banks busy for write cycles: 1905911
2banks busy for read cycles: 716668
2banks busy for write cycles: 621655
3banks busy for read cycles: 248226
3banks busy for write cycles: 262853
4banks busy for read cycles: 106024
4banks busy for write cycles: 114617
5banks busy for read cycles: 48618
5banks busy for write cycles: 67980
6banks busy for read cycles: 28210
6banks busy for write cycles: 52005
7banks busy for read cycles: 18239
7banks busy for write cycles: 72224
8banks busy for read cycles: 6399
8banks busy for write cycles: 136096

CPU 0 Branch Prediction Accuracy: 91.5918% MPKI: 13.4016 Average ROB Occupancy at Mispredict: 20.0755
Branch types
NOT_BRANCH: 42030390 84.0608%
BRANCH_DIRECT_JUMP: 517023 1.03405%
BRANCH_INDIRECT: 0 0%
BRANCH_CONDITIONAL: 6762167 13.5243%
BRANCH_DIRECT_CALL: 345089 0.690178%
BRANCH_INDIRECT_CALL: 0 0%
BRANCH_RETURN: 345089 0.690178%
BRANCH_OTHER: 0 0%

DRAM PAGES: 1048576
Allocated PAGES: 1408
