
*** ChampSim Multicore Out-of-Order Simulator ***

Warmup Instructions: 50000000
Simulation Instructions: 50000000
Number of CPUs: 1
LLC sets: 2048
LLC ways: 16
Off-chip DRAM Size: 4096 MB Channels: 1 Width: 64-bit Data Rate: 6400 MT/s
CPU 0 runs ./traces/SPEC-CPU2017/401.bzip2-226B.champsimtrace.xz
.xz
CPU 0 Bimodal branch predictor
BTB has LRU replacement policy
ITLB has LRU replacement policy
DTLB has LRU replacement policy
STLB has LRU replacement policy
L1I has LRU replacement policy
L1D has LRU replacement policy
L2C has LRU replacement policy
LLC has LRU replacement policy
Heartbeat CPU 0 instructions: 10000003 cycles: 3089401 heartbeat IPC: 3.23687 cumulative IPC: 3.23687 (Simulation time: 0 hr 12 min 22 sec) 
Heartbeat CPU 0 instructions: 20000000 cycles: 6242623 heartbeat IPC: 3.17136 cumulative IPC: 3.20378 (Simulation time: 0 hr 24 min 5 sec) 
Heartbeat CPU 0 instructions: 30000002 cycles: 9433653 heartbeat IPC: 3.13379 cumulative IPC: 3.1801 (Simulation time: 0 hr 36 min 29 sec) 
Heartbeat CPU 0 instructions: 40000000 cycles: 12247188 heartbeat IPC: 3.55425 cumulative IPC: 3.26606 (Simulation time: 0 hr 47 min 56 sec) 
Heartbeat CPU 0 instructions: 50000000 cycles: 15092853 heartbeat IPC: 3.51412 cumulative IPC: 3.31283 (Simulation time: 1 hr 0 min 50 sec) 

Warmup complete CPU 0 instructions: 50000004 cycles: 15092854 (Simulation time: 1 hr 0 min 50 sec) 

Heartbeat CPU 0 instructions: 60000000 cycles: 29021365 heartbeat IPC: 0.717952 cumulative IPC: 0.717952 (Simulation time: 1 hr 4 min 51 sec) 
Heartbeat CPU 0 instructions: 70000002 cycles: 43262354 heartbeat IPC: 0.702199 cumulative IPC: 0.709988 (Simulation time: 1 hr 8 min 4 sec) 
Heartbeat CPU 0 instructions: 80000000 cycles: 58903608 heartbeat IPC: 0.639335 cumulative IPC: 0.684763 (Simulation time: 1 hr 11 min 19 sec) 
Heartbeat CPU 0 instructions: 90000003 cycles: 74134005 heartbeat IPC: 0.656582 cumulative IPC: 0.677494 (Simulation time: 1 hr 14 min 29 sec) 
Heartbeat CPU 0 instructions: 100000000 cycles: 88183675 heartbeat IPC: 0.71176 cumulative IPC: 0.68408 (Simulation time: 1 hr 17 min 44 sec) 
Finished CPU 0 instructions: 50000003 cycles: 73090835 cumulative IPC: 0.68408 (Simulation time: 1 hr 17 min 44 sec) 

ChampSim completed all CPUs

Region of Interest Statistics

CPU 0 cumulative IPC: 0.68408 instructions: 50000003 cycles: 73090835
ITLB TOTAL     ACCESS:    7599469  HIT:    7599469  MISS:          0  HIT %:        100  MISS %:          0   MPKI: 0
ITLB LOAD TRANSLATION ACCESS:    7599469  HIT:    7599469  MISS:          0  HIT %:        100  MISS %:          0   MPKI: 0
ITLB PREFETCH  REQUESTED:          0  ISSUED:          0  USEFUL:          0  USELESS:          0
ITLB USEFUL LOAD PREFETCHES:          0 PREFETCH ISSUED TO LOWER LEVEL:          0  ACCURACY: -nan
ITLB TIMELY PREFETCHES:          0 LATE PREFETCHES: 0 DROPPED PREFETCHES: 0
ITLB PREFETCHES SAME FILL-ORIGIN LEVEL: 0 DIFFERENT FILL-ORIGIN LEVEL: 0
ITLB AVERAGE MISS LATENCY: -nan cycles
ITLB RQ	ACCESS:    8726359	FORWARD:          0	MERGED:    1126890	TO_CACHE:    7599469

DTLB TOTAL     ACCESS:   10647448  HIT:   10374743  MISS:     272705  HIT %:    97.4388  MISS %:    2.56122   MPKI: 5.4541
DTLB LOAD TRANSLATION ACCESS:   10647448  HIT:   10374743  MISS:     272705  HIT %:    97.4388  MISS %:    2.56122   MPKI: 5.4541
DTLB PREFETCH  REQUESTED:          0  ISSUED:          0  USEFUL:          0  USELESS:          0
DTLB USEFUL LOAD PREFETCHES:          0 PREFETCH ISSUED TO LOWER LEVEL:          0  ACCURACY: -nan
DTLB TIMELY PREFETCHES:          0 LATE PREFETCHES: 0 DROPPED PREFETCHES: 0
DTLB PREFETCHES SAME FILL-ORIGIN LEVEL: 0 DIFFERENT FILL-ORIGIN LEVEL: 0
DTLB AVERAGE MISS LATENCY: 9.07183 cycles
DTLB RQ	ACCESS:   13343637	FORWARD:          0	MERGED:    2679766	TO_CACHE:   10663871

STLB TOTAL     ACCESS:    2136703  HIT:    2136703  MISS:          0  HIT %:        100  MISS %:          0   MPKI: 0
STLB LOAD TRANSLATION ACCESS:     272705  HIT:     272705  MISS:          0  HIT %:        100  MISS %:          0   MPKI: 0
STLB TRANSLATION FROM L1D PREFETCHER ACCESS:    1863998  HIT:    1863998  MISS:          0  HIT %:        100  MISS %:          0   MPKI: 0
STLB PREFETCH  REQUESTED:          0  ISSUED:          0  USEFUL:          0  USELESS:          0
STLB USEFUL LOAD PREFETCHES:          0 PREFETCH ISSUED TO LOWER LEVEL:          0  ACCURACY: -nan
STLB TIMELY PREFETCHES:          0 LATE PREFETCHES: 0 DROPPED PREFETCHES: 0
STLB PREFETCHES SAME FILL-ORIGIN LEVEL: 0 DIFFERENT FILL-ORIGIN LEVEL: 0
STLB AVERAGE MISS LATENCY: -nan cycles
STLB RQ	ACCESS:    2916651	FORWARD:          0	MERGED:     779949	TO_CACHE:    2136702

STLB Hit, L1D data hit: 0
STLB Hit, L2C data hit: 0
STLB Hit, LLC data hit: 0
STLB Hit, LLC data miss: 0
STLB STLB hints to L2: 0
L1D TOTAL     ACCESS:   15830205  HIT:   14377216  MISS:    1452989  HIT %:    90.8214  MISS %:    9.17859   MPKI: 29.0598
L1D LOAD      ACCESS:    9192537  HIT:    8728161  MISS:     464376  HIT %:    94.9483  MISS %:    5.05166   MPKI: 9.28752
L1D RFO       ACCESS:    4049891  HIT:    3941898  MISS:     107993  HIT %:    97.3334  MISS %:    2.66657   MPKI: 2.15986
L1D PREFETCH  ACCESS:    2587777  HIT:    1707157  MISS:     880620  HIT %:      65.97  MISS %:      34.03   MPKI: 17.6124
AGUS PREFETCH L1 MISS: 0
L1D PREFETCH  REQUESTED:    5538893  ISSUED:    5288181  USEFUL:     140654  USELESS:     740408
L1D USEFUL LOAD PREFETCHES:     140654 PREFETCH ISSUED TO LOWER LEVEL:     894985  ACCURACY: 15.7158
L1D TIMELY PREFETCHES:     140654 LATE PREFETCHES: 14365 DROPPED PREFETCHES: 0
L1D PREFETCHES SAME FILL-ORIGIN LEVEL: 894985 DIFFERENT FILL-ORIGIN LEVEL: 0
L1D AVERAGE MISS LATENCY: 31.2159 cycles
L1D RQ	ACCESS:   17601965	FORWARD:          0	MERGED:    8258146	TO_CACHE:    9239882
L1D WQ	ACCESS:    4533576	FORWARD:     104226	MERGED:     429821	TO_CACHE:    4103755
L1D PQ	ACCESS:    2644235	FORWARD:          0	MERGED:          0	TO_CACHE:    2643946

L1D UNIQUE REGIONS ACCESSED: 0
L1D REGIONS CONFLICTS: 0
L1D Cross Page Prefetch Requests: 2361527
L1D Same Page Prefetch Requests: 3578054
L1D ROI Sum of L1D PQ occupancy: 36682379
L1D PREFETCHES PUSHED FROM L2C: 0
L1I TOTAL     ACCESS:    8726358  HIT:    8726358  MISS:          0  HIT %:        100  MISS %:          0   MPKI: 0
L1I LOAD      ACCESS:    8726358  HIT:    8726358  MISS:          0  HIT %:        100  MISS %:          0   MPKI: 0
L1I PREFETCH  REQUESTED:          0  ISSUED:          0  USEFUL:          0  USELESS:          0
L1I USEFUL LOAD PREFETCHES:          0 PREFETCH ISSUED TO LOWER LEVEL:          0  ACCURACY: -nan
L1I TIMELY PREFETCHES:          0 LATE PREFETCHES: 0 DROPPED PREFETCHES: 0
L1I PREFETCHES SAME FILL-ORIGIN LEVEL: 0 DIFFERENT FILL-ORIGIN LEVEL: 0
L1I AVERAGE MISS LATENCY: -nan cycles
L1I RQ	ACCESS:   12711249	FORWARD:          0	MERGED:    3984890	TO_CACHE:    8726359

BTB TOTAL     ACCESS:    7871105  HIT:    7694621  MISS:     176484  HIT %:    97.7578  MISS %:    2.24218   MPKI: 3.52968
BTB BRANCH_DIRECT_JUMP	ACCESS:     517023  HIT:     517009  MISS:         14
BTB BRANCH_INDIRECT	ACCESS:          0  HIT:          0  MISS:          0
BTB BRANCH_CONDITIONAL	ACCESS:    6663904  HIT:    6663823  MISS:         81
BTB BRANCH_DIRECT_CALL	ACCESS:     345089  HIT:     345086  MISS:          3
BTB BRANCH_INDIRECT_CALL	ACCESS:          0  HIT:          0  MISS:          0
BTB BRANCH_RETURN	ACCESS:     345089  HIT:     168703  MISS:     176386
BTB BRANCH_OTHER ACCESS:          0  HIT:          0  MISS:          0

L2C TOTAL     ACCESS:    1592927  HIT:    1149358  MISS:     443569  HIT %:    72.1538  MISS %:    27.8462   MPKI: 8.87138
L2C LOAD      ACCESS:     450010  HIT:     343342  MISS:     106668  HIT %:    76.2965  MISS %:    23.7035   MPKI: 2.13336
L2C DATA LOAD MPKI: 2.13336
L2C INSTRUCTION LOAD MPKI: 0
L2C RFO       ACCESS:     107988  HIT:      21221  MISS:      86767  HIT %:    19.6513  MISS %:    80.3487   MPKI: 1.73534
L2C PREFETCH  ACCESS:     894971  HIT:     644890  MISS:     250081  HIT %:    72.0571  MISS %:    27.9429   MPKI: 5.00162
AGUS PREFETCH L1 MISS: 0
L2C DATA PREFETCH MPKI: 5.00162
L2C INSTRUCTION PREFETCH MPKI: 0
L2C WRITEBACK ACCESS:     139958  HIT:     139905  MISS:         53  HIT %:    99.9621  MISS %:  0.0378685   MPKI: 0.00106
L2C PREFETCH  REQUESTED:          0  ISSUED:          0  USEFUL:      42392  USELESS:     209751
L2C USEFUL LOAD PREFETCHES:      42392 PREFETCH ISSUED TO LOWER LEVEL:     250081  ACCURACY: 16.9513
L2C TIMELY PREFETCHES:      42392 LATE PREFETCHES: 0 DROPPED PREFETCHES: 0
L2C PREFETCHES SAME FILL-ORIGIN LEVEL: 0 DIFFERENT FILL-ORIGIN LEVEL: 0
L2C AVERAGE MISS LATENCY: 52.3699 cycles
L2C RQ	ACCESS:     558006	FORWARD:          0	MERGED:          0	TO_CACHE:     558000
L2C WQ	ACCESS:     139959	FORWARD:         20	MERGED:          0	TO_CACHE:     139959
L2C PQ	ACCESS:     894985	FORWARD:          0	MERGED:          0	TO_CACHE:     894971

L2C Instructions Evicting Data 0
L2C Translations Evicting Data 0
L2C Data Evicting Data 443516
L2C Instructions Evicting Instructions 0
L2C Translations Evicting Instructions 0
L2C Data Evicting Instructions 0
L2C Instructions Evicting Translations 0
L2C Translations Evicting Translations 0
L2C Data Evicting Translations 0
L2C Dense regions hint from L2: 0
PSCL5 PREFETCH  REQUESTED:          0  ISSUED:          0  USEFUL:          0  USELESS:          0
PSCL5 USEFUL LOAD PREFETCHES:          0 PREFETCH ISSUED TO LOWER LEVEL:          0  ACCURACY: -nan
PSCL5 TIMELY PREFETCHES:          0 LATE PREFETCHES: 0 DROPPED PREFETCHES: 0
PSCL5 PREFETCHES SAME FILL-ORIGIN LEVEL: 0 DIFFERENT FILL-ORIGIN LEVEL: 0

PSCL4 PREFETCH  REQUESTED:          0  ISSUED:          0  USEFUL:          0  USELESS:          0
PSCL4 USEFUL LOAD PREFETCHES:          0 PREFETCH ISSUED TO LOWER LEVEL:          0  ACCURACY: -nan
PSCL4 TIMELY PREFETCHES:          0 LATE PREFETCHES: 0 DROPPED PREFETCHES: 0
PSCL4 PREFETCHES SAME FILL-ORIGIN LEVEL: 0 DIFFERENT FILL-ORIGIN LEVEL: 0

PSCL3 PREFETCH  REQUESTED:          0  ISSUED:          0  USEFUL:          0  USELESS:          0
PSCL3 USEFUL LOAD PREFETCHES:          0 PREFETCH ISSUED TO LOWER LEVEL:          0  ACCURACY: -nan
PSCL3 TIMELY PREFETCHES:          0 LATE PREFETCHES: 0 DROPPED PREFETCHES: 0
PSCL3 PREFETCHES SAME FILL-ORIGIN LEVEL: 0 DIFFERENT FILL-ORIGIN LEVEL: 0

PSCL2 PREFETCH  REQUESTED:          0  ISSUED:          0  USEFUL:          0  USELESS:          0
PSCL2 USEFUL LOAD PREFETCHES:          0 PREFETCH ISSUED TO LOWER LEVEL:          0  ACCURACY: -nan
PSCL2 TIMELY PREFETCHES:          0 LATE PREFETCHES: 0 DROPPED PREFETCHES: 0
PSCL2 PREFETCHES SAME FILL-ORIGIN LEVEL: 0 DIFFERENT FILL-ORIGIN LEVEL: 0

LLC TOTAL     ACCESS:     551188  HIT:     504697  MISS:      46491  HIT %:    91.5653  MISS %:    8.43469   MPKI: 0.92982
LLC LOAD      ACCESS:     106668  HIT:      98641  MISS:       8027  HIT %:    92.4748  MISS %:    7.52522   MPKI: 0.16054
LLC RFO       ACCESS:      86767  HIT:      67431  MISS:      19336  HIT %:     77.715  MISS %:     22.285   MPKI: 0.38672
LLC PREFETCH  ACCESS:     250080  HIT:     230954  MISS:      19126  HIT %:     92.352  MISS %:    7.64795   MPKI: 0.38252
AGUS PREFETCH L1 MISS: 0
LLC WRITEBACK ACCESS:     107673  HIT:     107671  MISS:          2  HIT %:    99.9981  MISS %: 0.00185748   MPKI: 4e-05
LLC PREFETCH  REQUESTED:          0  ISSUED:          0  USEFUL:      12569  USELESS:      11133
LLC USEFUL LOAD PREFETCHES:      12569 PREFETCH ISSUED TO LOWER LEVEL:      19126  ACCURACY: 65.7168
LLC TIMELY PREFETCHES:      12569 LATE PREFETCHES: 0 DROPPED PREFETCHES: 0
LLC PREFETCHES SAME FILL-ORIGIN LEVEL: 0 DIFFERENT FILL-ORIGIN LEVEL: 0
LLC AVERAGE MISS LATENCY: 213.433 cycles
LLC RQ	ACCESS:     193437	FORWARD:          0	MERGED:          0	TO_CACHE:     193436
LLC WQ	ACCESS:     107673	FORWARD:          2	MERGED:          0	TO_CACHE:     107673
LLC PQ	ACCESS:     250081	FORWARD:          0	MERGED:          0	TO_CACHE:     250080

LLC Dense regions hint to LLC: 0

RAW hits: 1160652
Loads Generated: 18762619
Loads sent to L1D: 17601965
Stores Generated: 4533564
Stores sent to L1D: 4533576
Major fault: 0 Minor fault: 1408
Allocated PAGES: 1408

stream: 
stream:times selected: 4808801
stream:pref_reqs: 7118429
stream:pref_reqs_filtered_out: 4151909
stream:pref_filled: 766254
stream:pref_useful: 53522
stream:pref_late: 2342
stream:misses: 110396
stream:misses_by_poll: 0

CS: 
CS:times selected: 352993
CS:pref_reqs: 970516
CS:pref_reqs_filtered_out: 587005
CS:pref_filled: 97318
CS:pref_useful: 77956
CS:pref_late: 3179
CS:misses: 21924
CS:misses_by_poll: 60

CPLX: 
CPLX:times selected: 4380771
CPLX:pref_reqs: 388448
CPLX:pref_reqs_filtered_out: 185874
CPLX:pref_filled: 107391
CPLX:pref_useful: 6100
CPLX:pref_late: 1187
CPLX:misses: 440398
CPLX:misses_by_poll: 178

ISB: 
ISB:total access:13980008
ISB:times selected:5164632
ISB:canary counter:0
ISB:pref_reqs: 8315343
ISB:pref_reqs_filtered_out: 5062323
ISB:pref_filled: 535736
ISB:pref_useful: 194982
ISB:pref_late: 11780
ISB:misses: 48059
ISB:misses_by_poll: 1963
ISB:Stream end: 4685917
ISB:No Prediction: 8815376 63.057
ISB:No translation: 467277835 3342.47
ISB:Predictions: 2951513 21.1124

NL_L1: 
NL:times selected: 38551
NL:pref_reqs: 38551
NL:pref_reqs_filtered_out: 9263
NL:pref_filled: 5365
NL:pref_useful: 403
NL:pref_late: 27
NL:misses: 3899
NL:misses_by_poll: 0

Coverage: 23.2474
total selections: 14745748
total_filled: 880620
total_useful: 140654
total_late: 20939
total_polluted: 2201
total_misses_after_warmup: 511719
conflicts: 1260844

test: 0
Prefetcher final stats
Training Unit Size: 136
Addr table size: 26926 26974
Stream divergence: 160906 1.15097
Stream divergence -- new stream: 0
--------------------------Training unit table ------------------------

DRAM Statistics
 CHANNEL 0
 RQ ROW_BUFFER_HIT:       4623  ROW_BUFFER_MISS:      41770
 DBUS_CONGESTED:          2
 WQ ROW_BUFFER_HIT:       6580  ROW_BUFFER_MISS:      30999  FULL:          0

 AVG_CONGESTED_CYCLE: 6
 All warmup complete: 2
Channel 0 Bank busy for read cycles: 0
Channel 0 Bank busy for write cycles: 0
Channel 0
Rank 0
0banks busy for read cycles: 65344465
0banks busy for write cycles: 14351
1banks busy for read cycles: 3297609
1banks busy for write cycles: 1878864
2banks busy for read cycles: 744007
2banks busy for write cycles: 619364
3banks busy for read cycles: 248694
3banks busy for write cycles: 274953
4banks busy for read cycles: 107642
4banks busy for write cycles: 123226
5banks busy for read cycles: 52734
5banks busy for write cycles: 66919
6banks busy for read cycles: 30154
6banks busy for write cycles: 48057
7banks busy for read cycles: 19988
7banks busy for write cycles: 72436
8banks busy for read cycles: 4486
8banks busy for write cycles: 142887

CPU 0 Branch Prediction Accuracy: 91.5918% MPKI: 13.4016 Average ROB Occupancy at Mispredict: 20.084
Branch types
NOT_BRANCH: 42030390 84.0608%
BRANCH_DIRECT_JUMP: 517023 1.03405%
BRANCH_INDIRECT: 0 0%
BRANCH_CONDITIONAL: 6762167 13.5243%
BRANCH_DIRECT_CALL: 345089 0.690178%
BRANCH_INDIRECT_CALL: 0 0%
BRANCH_RETURN: 345089 0.690178%
BRANCH_OTHER: 0 0%

DRAM PAGES: 1048576
Allocated PAGES: 1408
