
*** ChampSim Multicore Out-of-Order Simulator ***

Warmup Instructions: 50000000
Simulation Instructions: 50000000
Number of CPUs: 1
LLC sets: 2048
LLC ways: 16
Off-chip DRAM Size: 4096 MB Channels: 1 Width: 64-bit Data Rate: 6400 MT/s
CPU 0 runs ./traces/SPEC-CPU2017/401.bzip2-226B.champsimtrace.xz
.xz
CPU 0 Bimodal branch predictor
BTB has LRU replacement policy
ITLB has LRU replacement policy
DTLB has LRU replacement policy
STLB has LRU replacement policy
L1I has LRU replacement policy
L1D has LRU replacement policy
L2C has LRU replacement policy
LLC has LRU replacement policy
Heartbeat CPU 0 instructions: 10000003 cycles: 3089410 heartbeat IPC: 3.23687 cumulative IPC: 3.23687 (Simulation time: 0 hr 7 min 18 sec) 
Heartbeat CPU 0 instructions: 20000000 cycles: 6242671 heartbeat IPC: 3.17132 cumulative IPC: 3.20376 (Simulation time: 0 hr 15 min 41 sec) 
Heartbeat CPU 0 instructions: 30000001 cycles: 9404019 heartbeat IPC: 3.16321 cumulative IPC: 3.19013 (Simulation time: 0 hr 21 min 52 sec) 
Heartbeat CPU 0 instructions: 40000000 cycles: 12177170 heartbeat IPC: 3.60601 cumulative IPC: 3.28484 (Simulation time: 0 hr 27 min 45 sec) 
Heartbeat CPU 0 instructions: 50000000 cycles: 15022329 heartbeat IPC: 3.51474 cumulative IPC: 3.32838 (Simulation time: 0 hr 37 min 51 sec) 

Warmup complete CPU 0 instructions: 50000004 cycles: 15022330 (Simulation time: 0 hr 37 min 51 sec) 

Heartbeat CPU 0 instructions: 60000000 cycles: 28950286 heartbeat IPC: 0.71798 cumulative IPC: 0.71798 (Simulation time: 0 hr 42 min 18 sec) 
Heartbeat CPU 0 instructions: 70000002 cycles: 43186523 heartbeat IPC: 0.702433 cumulative IPC: 0.710121 (Simulation time: 0 hr 46 min 21 sec) 
Heartbeat CPU 0 instructions: 80000000 cycles: 58799088 heartbeat IPC: 0.64051 cumulative IPC: 0.685295 (Simulation time: 0 hr 50 min 21 sec) 
Heartbeat CPU 0 instructions: 90000003 cycles: 74012178 heartbeat IPC: 0.657329 cumulative IPC: 0.678083 (Simulation time: 0 hr 54 min 30 sec) 
Heartbeat CPU 0 instructions: 100000000 cycles: 88073091 heartbeat IPC: 0.711191 cumulative IPC: 0.684456 (Simulation time: 0 hr 57 min 51 sec) 
Finished CPU 0 instructions: 50000003 cycles: 73050775 cumulative IPC: 0.684455 (Simulation time: 0 hr 57 min 51 sec) 

ChampSim completed all CPUs

Region of Interest Statistics

CPU 0 cumulative IPC: 0.684455 instructions: 50000003 cycles: 73050775
ITLB TOTAL     ACCESS:    7600598  HIT:    7600598  MISS:          0  HIT %:        100  MISS %:          0   MPKI: 0
ITLB LOAD TRANSLATION ACCESS:    7600598  HIT:    7600598  MISS:          0  HIT %:        100  MISS %:          0   MPKI: 0
ITLB PREFETCH  REQUESTED:          0  ISSUED:          0  USEFUL:          0  USELESS:          0
ITLB USEFUL LOAD PREFETCHES:          0 PREFETCH ISSUED TO LOWER LEVEL:          0  ACCURACY: -nan
ITLB TIMELY PREFETCHES:          0 LATE PREFETCHES: 0 DROPPED PREFETCHES: 0
ITLB PREFETCHES SAME FILL-ORIGIN LEVEL: 0 DIFFERENT FILL-ORIGIN LEVEL: 0
ITLB AVERAGE MISS LATENCY: -nan cycles
ITLB RQ	ACCESS:    8728613	FORWARD:          0	MERGED:    1128015	TO_CACHE:    7600598

DTLB TOTAL     ACCESS:   10652603  HIT:   10379873  MISS:     272730  HIT %:    97.4398  MISS %:    2.56022   MPKI: 5.4546
DTLB LOAD TRANSLATION ACCESS:   10652603  HIT:   10379873  MISS:     272730  HIT %:    97.4398  MISS %:    2.56022   MPKI: 5.4546
DTLB PREFETCH  REQUESTED:          0  ISSUED:          0  USEFUL:          0  USELESS:          0
DTLB USEFUL LOAD PREFETCHES:          0 PREFETCH ISSUED TO LOWER LEVEL:          0  ACCURACY: -nan
DTLB TIMELY PREFETCHES:          0 LATE PREFETCHES: 0 DROPPED PREFETCHES: 0
DTLB PREFETCHES SAME FILL-ORIGIN LEVEL: 0 DIFFERENT FILL-ORIGIN LEVEL: 0
DTLB AVERAGE MISS LATENCY: 9.03247 cycles
DTLB RQ	ACCESS:   13349819	FORWARD:          0	MERGED:    2680799	TO_CACHE:   10669020

STLB TOTAL     ACCESS:    1905144  HIT:    1905144  MISS:          0  HIT %:        100  MISS %:          0   MPKI: 0
STLB LOAD TRANSLATION ACCESS:     272730  HIT:     272730  MISS:          0  HIT %:        100  MISS %:          0   MPKI: 0
STLB TRANSLATION FROM L1D PREFETCHER ACCESS:    1632414  HIT:    1632414  MISS:          0  HIT %:        100  MISS %:          0   MPKI: 0
STLB PREFETCH  REQUESTED:          0  ISSUED:          0  USEFUL:          0  USELESS:          0
STLB USEFUL LOAD PREFETCHES:          0 PREFETCH ISSUED TO LOWER LEVEL:          0  ACCURACY: -nan
STLB TIMELY PREFETCHES:          0 LATE PREFETCHES: 0 DROPPED PREFETCHES: 0
STLB PREFETCHES SAME FILL-ORIGIN LEVEL: 0 DIFFERENT FILL-ORIGIN LEVEL: 0
STLB AVERAGE MISS LATENCY: -nan cycles
STLB RQ	ACCESS:    2472288	FORWARD:          0	MERGED:     567144	TO_CACHE:    1905144

STLB Hit, L1D data hit: 0
STLB Hit, L2C data hit: 0
STLB Hit, LLC data hit: 0
STLB Hit, LLC data miss: 0
STLB STLB hints to L2: 0
L1D TOTAL     ACCESS:   15382384  HIT:   14054730  MISS:    1327654  HIT %:     91.369  MISS %:      8.631   MPKI: 26.5531
L1D LOAD      ACCESS:    9201141  HIT:    8734051  MISS:     467090  HIT %:    94.9236  MISS %:    5.07644   MPKI: 9.3418
L1D RFO       ACCESS:    4050432  HIT:    3942876  MISS:     107556  HIT %:    97.3446  MISS %:    2.65542   MPKI: 2.15112
L1D PREFETCH  ACCESS:    2130811  HIT:    1377803  MISS:     753008  HIT %:     64.661  MISS %:     35.339   MPKI: 15.0602
AGUS PREFETCH L1 MISS: 0
L1D PREFETCH  REQUESTED:    4494828  ISSUED:    4399457  USEFUL:     122414  USELESS:     630999
L1D USEFUL LOAD PREFETCHES:     122414 PREFETCH ISSUED TO LOWER LEVEL:     769307  ACCURACY: 15.9122
L1D TIMELY PREFETCHES:     122414 LATE PREFETCHES: 16299 DROPPED PREFETCHES: 0
L1D PREFETCHES SAME FILL-ORIGIN LEVEL: 769307 DIFFERENT FILL-ORIGIN LEVEL: 0
L1D AVERAGE MISS LATENCY: 32.0092 cycles
L1D RQ	ACCESS:   17602660	FORWARD:          0	MERGED:    8252863	TO_CACHE:    9245971
L1D WQ	ACCESS:    4533576	FORWARD:     104167	MERGED:     429728	TO_CACHE:    4103848
L1D PQ	ACCESS:    2199899	FORWARD:          0	MERGED:          0	TO_CACHE:    2199558

L1D UNIQUE REGIONS ACCESSED: 0
L1D REGIONS CONFLICTS: 0
L1D Cross Page Prefetch Requests: 1084056
L1D Same Page Prefetch Requests: 3565304
L1D ROI Sum of L1D PQ occupancy: 29230254
L1D PREFETCHES PUSHED FROM L2C: 0
L1I TOTAL     ACCESS:    8728612  HIT:    8728612  MISS:          0  HIT %:        100  MISS %:          0   MPKI: 0
L1I LOAD      ACCESS:    8728612  HIT:    8728612  MISS:          0  HIT %:        100  MISS %:          0   MPKI: 0
L1I PREFETCH  REQUESTED:          0  ISSUED:          0  USEFUL:          0  USELESS:          0
L1I USEFUL LOAD PREFETCHES:          0 PREFETCH ISSUED TO LOWER LEVEL:          0  ACCURACY: -nan
L1I TIMELY PREFETCHES:          0 LATE PREFETCHES: 0 DROPPED PREFETCHES: 0
L1I PREFETCHES SAME FILL-ORIGIN LEVEL: 0 DIFFERENT FILL-ORIGIN LEVEL: 0
L1I AVERAGE MISS LATENCY: -nan cycles
L1I RQ	ACCESS:   12711187	FORWARD:          0	MERGED:    3982574	TO_CACHE:    8728613

BTB TOTAL     ACCESS:    7871105  HIT:    7694621  MISS:     176484  HIT %:    97.7578  MISS %:    2.24218   MPKI: 3.52968
BTB BRANCH_DIRECT_JUMP	ACCESS:     517023  HIT:     517009  MISS:         14
BTB BRANCH_INDIRECT	ACCESS:          0  HIT:          0  MISS:          0
BTB BRANCH_CONDITIONAL	ACCESS:    6663904  HIT:    6663823  MISS:         81
BTB BRANCH_DIRECT_CALL	ACCESS:     345089  HIT:     345086  MISS:          3
BTB BRANCH_INDIRECT_CALL	ACCESS:          0  HIT:          0  MISS:          0
BTB BRANCH_RETURN	ACCESS:     345089  HIT:     168703  MISS:     176386
BTB BRANCH_OTHER ACCESS:          0  HIT:          0  MISS:          0

L2C TOTAL     ACCESS:    1466088  HIT:    1041725  MISS:     424363  HIT %:    71.0547  MISS %:    28.9453   MPKI: 8.48726
L2C LOAD      ACCESS:     450790  HIT:     340582  MISS:     110208  HIT %:    75.5523  MISS %:    24.4477   MPKI: 2.20416
L2C DATA LOAD MPKI: 2.20416
L2C INSTRUCTION LOAD MPKI: 0
L2C RFO       ACCESS:     107552  HIT:      21374  MISS:      86178  HIT %:    19.8732  MISS %:    80.1268   MPKI: 1.72356
L2C PREFETCH  ACCESS:     769298  HIT:     541372  MISS:     227926  HIT %:    70.3722  MISS %:    29.6278   MPKI: 4.55852
AGUS PREFETCH L1 MISS: 0
L2C DATA PREFETCH MPKI: 4.55852
L2C INSTRUCTION PREFETCH MPKI: 0
L2C WRITEBACK ACCESS:     138448  HIT:     138397  MISS:         51  HIT %:    99.9632  MISS %:  0.0368369   MPKI: 0.00102
L2C PREFETCH  REQUESTED:          0  ISSUED:          0  USEFUL:      39290  USELESS:     190360
L2C USEFUL LOAD PREFETCHES:      39290 PREFETCH ISSUED TO LOWER LEVEL:     227926  ACCURACY: 17.2381
L2C TIMELY PREFETCHES:      39290 LATE PREFETCHES: 0 DROPPED PREFETCHES: 0
L2C PREFETCHES SAME FILL-ORIGIN LEVEL: 0 DIFFERENT FILL-ORIGIN LEVEL: 0
L2C AVERAGE MISS LATENCY: 52.5885 cycles
L2C RQ	ACCESS:     558349	FORWARD:          0	MERGED:          0	TO_CACHE:     558344
L2C WQ	ACCESS:     138449	FORWARD:         14	MERGED:          0	TO_CACHE:     138449
L2C PQ	ACCESS:     769307	FORWARD:          0	MERGED:          0	TO_CACHE:     769298

L2C Instructions Evicting Data 0
L2C Translations Evicting Data 0
L2C Data Evicting Data 424312
L2C Instructions Evicting Instructions 0
L2C Translations Evicting Instructions 0
L2C Data Evicting Instructions 0
L2C Instructions Evicting Translations 0
L2C Translations Evicting Translations 0
L2C Data Evicting Translations 0
L2C Dense regions hint from L2: 0
PSCL5 PREFETCH  REQUESTED:          0  ISSUED:          0  USEFUL:          0  USELESS:          0
PSCL5 USEFUL LOAD PREFETCHES:          0 PREFETCH ISSUED TO LOWER LEVEL:          0  ACCURACY: -nan
PSCL5 TIMELY PREFETCHES:          0 LATE PREFETCHES: 0 DROPPED PREFETCHES: 0
PSCL5 PREFETCHES SAME FILL-ORIGIN LEVEL: 0 DIFFERENT FILL-ORIGIN LEVEL: 0

PSCL4 PREFETCH  REQUESTED:          0  ISSUED:          0  USEFUL:          0  USELESS:          0
PSCL4 USEFUL LOAD PREFETCHES:          0 PREFETCH ISSUED TO LOWER LEVEL:          0  ACCURACY: -nan
PSCL4 TIMELY PREFETCHES:          0 LATE PREFETCHES: 0 DROPPED PREFETCHES: 0
PSCL4 PREFETCHES SAME FILL-ORIGIN LEVEL: 0 DIFFERENT FILL-ORIGIN LEVEL: 0

PSCL3 PREFETCH  REQUESTED:          0  ISSUED:          0  USEFUL:          0  USELESS:          0
PSCL3 USEFUL LOAD PREFETCHES:          0 PREFETCH ISSUED TO LOWER LEVEL:          0  ACCURACY: -nan
PSCL3 TIMELY PREFETCHES:          0 LATE PREFETCHES: 0 DROPPED PREFETCHES: 0
PSCL3 PREFETCHES SAME FILL-ORIGIN LEVEL: 0 DIFFERENT FILL-ORIGIN LEVEL: 0

PSCL2 PREFETCH  REQUESTED:          0  ISSUED:          0  USEFUL:          0  USELESS:          0
PSCL2 USEFUL LOAD PREFETCHES:          0 PREFETCH ISSUED TO LOWER LEVEL:          0  ACCURACY: -nan
PSCL2 TIMELY PREFETCHES:          0 LATE PREFETCHES: 0 DROPPED PREFETCHES: 0
PSCL2 PREFETCHES SAME FILL-ORIGIN LEVEL: 0 DIFFERENT FILL-ORIGIN LEVEL: 0

LLC TOTAL     ACCESS:     531704  HIT:     486068  MISS:      45636  HIT %:     91.417  MISS %:    8.58297   MPKI: 0.91272
LLC LOAD      ACCESS:     110208  HIT:     102097  MISS:       8111  HIT %:    92.6403  MISS %:    7.35972   MPKI: 0.16222
LLC RFO       ACCESS:      86179  HIT:      67026  MISS:      19153  HIT %:    77.7753  MISS %:    22.2247   MPKI: 0.38306
LLC PREFETCH  ACCESS:     227923  HIT:     209554  MISS:      18369  HIT %:    91.9407  MISS %:     8.0593   MPKI: 0.36738
AGUS PREFETCH L1 MISS: 0
LLC WRITEBACK ACCESS:     107394  HIT:     107391  MISS:          3  HIT %:    99.9972  MISS %: 0.00279345   MPKI: 6e-05
LLC PREFETCH  REQUESTED:          0  ISSUED:          0  USEFUL:      12841  USELESS:      10545
LLC USEFUL LOAD PREFETCHES:      12841 PREFETCH ISSUED TO LOWER LEVEL:      18369  ACCURACY: 69.9058
LLC TIMELY PREFETCHES:      12841 LATE PREFETCHES: 0 DROPPED PREFETCHES: 0
LLC PREFETCHES SAME FILL-ORIGIN LEVEL: 0 DIFFERENT FILL-ORIGIN LEVEL: 0
LLC AVERAGE MISS LATENCY: 210.052 cycles
LLC RQ	ACCESS:     196388	FORWARD:          0	MERGED:          0	TO_CACHE:     196388
LLC WQ	ACCESS:     107394	FORWARD:          3	MERGED:          0	TO_CACHE:     107394
LLC PQ	ACCESS:     227926	FORWARD:          0	MERGED:          0	TO_CACHE:     227923

LLC Dense regions hint to LLC: 0

RAW hits: 1159957
Loads Generated: 18762619
Loads sent to L1D: 17602660
Stores Generated: 4533564
Stores sent to L1D: 4533576
Major fault: 0 Minor fault: 1408
Allocated PAGES: 1408

stream: 
stream:times selected: 4826239
stream:pref_reqs: 6924477
stream:pref_reqs_filtered_out: 4272801
stream:pref_filled: 786799
stream:pref_useful: 53683
stream:pref_late: 2480
stream:misses: 7419
stream:misses_by_poll: 0

CS: 
CS:times selected: 353183
CS:pref_reqs: 970346
CS:pref_reqs_filtered_out: 580581
CS:pref_filled: 126038
CS:pref_useful: 105358
CS:pref_late: 9606
CS:misses: 1397
CS:misses_by_poll: 46

CPLX: 
CPLX:times selected: 4396403
CPLX:pref_reqs: 399855
CPLX:pref_reqs_filtered_out: 184298
CPLX:pref_filled: 120295
CPLX:pref_useful: 8573
CPLX:pref_late: 2671
CPLX:misses: 29698
CPLX:misses_by_poll: 198

ISB: 
ISB:total access:16476756
ISB:times selected:9230707
ISB:canary counter:0
ISB:pref_reqs: 7445003
ISB:pref_reqs_filtered_out: 5826066
ISB:pref_filled: 230532
ISB:pref_useful: 96790
ISB:pref_late: 14118
ISB:misses: 622829
ISB:misses_by_poll: 819
ISB:Stream end: 4941246
ISB:No Prediction: 7246049 43.9774
ISB:No translation: 612204859
ISB:Predictions: 1553620 9.42916

NL_L1: 
NL:times selected: 42427
NL:pref_reqs: 42427
NL:pref_reqs_filtered_out: 10753
NL:pref_filled: 5727
NL:pref_useful: 385
NL:pref_late: 15
NL:misses: 3297
NL:misses_by_poll: 0

Coverage: 20.7656
total selections: 18848959
total_filled: 753008
total_useful: 122414
total_late: 31038
total_polluted: 1063
total_misses_after_warmup: 511918
conflicts: 1260930

test: 0
ISB Prefetcher final stats
Prefetcher final stats
Training Unit Size: 437
Addr table size: 44062 70074
Triggers: 16476756
Structural address exists: 9230707 56.0226
No Prediction: 7246049 43.9774
Prefetches issued: 1553620 9.42916
Stream end: 4941246
No translation: 612204859
%Stream divergence: 1089492 6.6123
Stream divergence -- new stream: 0
A: 0
B: 0
C: 4826243
D: 4826243
E: 4826243
F: 0
G: 0

DRAM Statistics
 CHANNEL 0
 RQ ROW_BUFFER_HIT:       4196  ROW_BUFFER_MISS:      41344
 DBUS_CONGESTED:         14
 WQ ROW_BUFFER_HIT:       6701  ROW_BUFFER_MISS:      30438  FULL:          0

 AVG_CONGESTED_CYCLE: 6
 All warmup complete: 2
Channel 0 Bank busy for read cycles: 0
Channel 0 Bank busy for write cycles: 0
Channel 0
Rank 0
0banks busy for read cycles: 65349675
0banks busy for write cycles: 14414
1banks busy for read cycles: 3297661
1banks busy for write cycles: 1893818
2banks busy for read cycles: 708826
2banks busy for write cycles: 610624
3banks busy for read cycles: 249745
3banks busy for write cycles: 275609
4banks busy for read cycles: 105328
4banks busy for write cycles: 117865
5banks busy for read cycles: 52546
5banks busy for write cycles: 67267
6banks busy for read cycles: 28538
6banks busy for write cycles: 53933
7banks busy for read cycles: 17175
7banks busy for write cycles: 64347
8banks busy for read cycles: 6866
8banks busy for write cycles: 136539

CPU 0 Branch Prediction Accuracy: 91.5918% MPKI: 13.4016 Average ROB Occupancy at Mispredict: 20.0407
Branch types
NOT_BRANCH: 42030390 84.0608%
BRANCH_DIRECT_JUMP: 517023 1.03405%
BRANCH_INDIRECT: 0 0%
BRANCH_CONDITIONAL: 6762167 13.5243%
BRANCH_DIRECT_CALL: 345089 0.690178%
BRANCH_INDIRECT_CALL: 0 0%
BRANCH_RETURN: 345089 0.690178%
BRANCH_OTHER: 0 0%

DRAM PAGES: 1048576
Allocated PAGES: 1408
