
*** ChampSim Multicore Out-of-Order Simulator ***

Warmup Instructions: 50000000
Simulation Instructions: 50000000
Number of CPUs: 1
LLC sets: 2048
LLC ways: 16
Off-chip DRAM Size: 4096 MB Channels: 1 Width: 64-bit Data Rate: 6400 MT/s
CPU 0 runs ./traces/SPEC-CPU2017/401.bzip2-226B.champsimtrace.xz
.xz
CPU 0 Bimodal branch predictor
BTB has LRU replacement policy
ITLB has LRU replacement policy
DTLB has LRU replacement policy
STLB has LRU replacement policy
L1I has LRU replacement policy
L1D has LRU replacement policy
L2C has LRU replacement policy
LLC has LRU replacement policy
Heartbeat CPU 0 instructions: 10000003 cycles: 3100637 heartbeat IPC: 3.22514 cumulative IPC: 3.22514 (Simulation time: 0 hr 0 min 57 sec) 
Heartbeat CPU 0 instructions: 20000000 cycles: 6263553 heartbeat IPC: 3.16164 cumulative IPC: 3.19308 (Simulation time: 0 hr 1 min 59 sec) 
Heartbeat CPU 0 instructions: 30000002 cycles: 9426346 heartbeat IPC: 3.16176 cumulative IPC: 3.18257 (Simulation time: 0 hr 2 min 52 sec) 
Heartbeat CPU 0 instructions: 40000000 cycles: 12205039 heartbeat IPC: 3.59881 cumulative IPC: 3.27733 (Simulation time: 0 hr 3 min 41 sec) 
Heartbeat CPU 0 instructions: 50000000 cycles: 15051567 heartbeat IPC: 3.51305 cumulative IPC: 3.32191 (Simulation time: 0 hr 4 min 45 sec) 

Warmup complete CPU 0 instructions: 50000004 cycles: 15051568 (Simulation time: 0 hr 4 min 45 sec) 

Heartbeat CPU 0 instructions: 60000000 cycles: 29188565 heartbeat IPC: 0.707364 cumulative IPC: 0.707364 (Simulation time: 0 hr 5 min 57 sec) 
Heartbeat CPU 0 instructions: 70000002 cycles: 43588584 heartbeat IPC: 0.694444 cumulative IPC: 0.700844 (Simulation time: 0 hr 7 min 4 sec) 
Heartbeat CPU 0 instructions: 80000000 cycles: 59512436 heartbeat IPC: 0.627989 cumulative IPC: 0.674751 (Simulation time: 0 hr 8 min 18 sec) 
Heartbeat CPU 0 instructions: 90000003 cycles: 74995610 heartbeat IPC: 0.645863 cumulative IPC: 0.667289 (Simulation time: 0 hr 9 min 31 sec) 
Heartbeat CPU 0 instructions: 100000000 cycles: 89221562 heartbeat IPC: 0.70294 cumulative IPC: 0.674127 (Simulation time: 0 hr 10 min 30 sec) 
Finished CPU 0 instructions: 50000003 cycles: 74170008 cumulative IPC: 0.674127 (Simulation time: 0 hr 10 min 30 sec) 

ChampSim completed all CPUs

Region of Interest Statistics

CPU 0 cumulative IPC: 0.674127 instructions: 50000003 cycles: 74170008
ITLB TOTAL     ACCESS:    7577590  HIT:    7577590  MISS:          0  HIT %:        100  MISS %:          0   MPKI: 0
ITLB LOAD TRANSLATION ACCESS:    7577590  HIT:    7577590  MISS:          0  HIT %:        100  MISS %:          0   MPKI: 0
ITLB PREFETCH  REQUESTED:          0  ISSUED:          0  USEFUL:          0  USELESS:          0
ITLB USEFUL LOAD PREFETCHES:          0 PREFETCH ISSUED TO LOWER LEVEL:          0  ACCURACY: -nan
ITLB TIMELY PREFETCHES:          0 LATE PREFETCHES: 0 DROPPED PREFETCHES: 0
ITLB PREFETCHES SAME FILL-ORIGIN LEVEL: 0 DIFFERENT FILL-ORIGIN LEVEL: 0
ITLB AVERAGE MISS LATENCY: -nan cycles
ITLB RQ	ACCESS:    8677322	FORWARD:          0	MERGED:    1099732	TO_CACHE:    7577590

DTLB TOTAL     ACCESS:   10610179  HIT:   10337482  MISS:     272697  HIT %:    97.4299  MISS %:    2.57015   MPKI: 5.45394
DTLB LOAD TRANSLATION ACCESS:   10610179  HIT:   10337482  MISS:     272697  HIT %:    97.4299  MISS %:    2.57015   MPKI: 5.45394
DTLB PREFETCH  REQUESTED:          0  ISSUED:          0  USEFUL:          0  USELESS:          0
DTLB USEFUL LOAD PREFETCHES:          0 PREFETCH ISSUED TO LOWER LEVEL:          0  ACCURACY: -nan
DTLB TIMELY PREFETCHES:          0 LATE PREFETCHES: 0 DROPPED PREFETCHES: 0
DTLB PREFETCHES SAME FILL-ORIGIN LEVEL: 0 DIFFERENT FILL-ORIGIN LEVEL: 0
DTLB AVERAGE MISS LATENCY: 9.07637 cycles
DTLB RQ	ACCESS:   13309083	FORWARD:          0	MERGED:    2680554	TO_CACHE:   10628529

STLB TOTAL     ACCESS:     272697  HIT:     272697  MISS:          0  HIT %:        100  MISS %:          0   MPKI: 0
STLB LOAD TRANSLATION ACCESS:     272697  HIT:     272697  MISS:          0  HIT %:        100  MISS %:          0   MPKI: 0
STLB PREFETCH  REQUESTED:          0  ISSUED:          0  USEFUL:          0  USELESS:          0
STLB USEFUL LOAD PREFETCHES:          0 PREFETCH ISSUED TO LOWER LEVEL:          0  ACCURACY: -nan
STLB TIMELY PREFETCHES:          0 LATE PREFETCHES: 0 DROPPED PREFETCHES: 0
STLB PREFETCHES SAME FILL-ORIGIN LEVEL: 0 DIFFERENT FILL-ORIGIN LEVEL: 0
STLB AVERAGE MISS LATENCY: -nan cycles
STLB RQ	ACCESS:     272697	FORWARD:          0	MERGED:          0	TO_CACHE:     272697

STLB Hit, L1D data hit: 0
STLB Hit, L2C data hit: 0
STLB Hit, LLC data hit: 0
STLB Hit, LLC data miss: 0
STLB STLB hints to L2: 0
L1D TOTAL     ACCESS:   13177728  HIT:   12593495  MISS:     584233  HIT %:    95.5665  MISS %:    4.43349   MPKI: 11.6847
L1D LOAD      ACCESS:    9123886  HIT:    8645846  MISS:     478040  HIT %:    94.7606  MISS %:    5.23943   MPKI: 9.5608
L1D RFO       ACCESS:    4053842  HIT:    3947649  MISS:     106193  HIT %:    97.3804  MISS %:    2.61956   MPKI: 2.12386
L1D PREFETCH  REQUESTED:          0  ISSUED:          0  USEFUL:          0  USELESS:          0
L1D USEFUL LOAD PREFETCHES:          0 PREFETCH ISSUED TO LOWER LEVEL:          0  ACCURACY: -nan
L1D TIMELY PREFETCHES:          0 LATE PREFETCHES: 0 DROPPED PREFETCHES: 0
L1D PREFETCHES SAME FILL-ORIGIN LEVEL: 0 DIFFERENT FILL-ORIGIN LEVEL: 0
L1D AVERAGE MISS LATENCY: 43.1538 cycles
L1D RQ	ACCESS:   17601285	FORWARD:          0	MERGED:    8292741	TO_CACHE:    9204866
L1D WQ	ACCESS:    4533576	FORWARD:     103678	MERGED:     429359	TO_CACHE:    4104217

L1D UNIQUE REGIONS ACCESSED: 0
L1D REGIONS CONFLICTS: 0
L1D Cross Page Prefetch Requests: 0
L1D Same Page Prefetch Requests: 0
L1D ROI Sum of L1D PQ occupancy: 0
L1D PREFETCHES PUSHED FROM L2C: 0
L1I TOTAL     ACCESS:    8677321  HIT:    8677321  MISS:          0  HIT %:        100  MISS %:          0   MPKI: 0
L1I LOAD      ACCESS:    8677321  HIT:    8677321  MISS:          0  HIT %:        100  MISS %:          0   MPKI: 0
L1I PREFETCH  REQUESTED:          0  ISSUED:          0  USEFUL:          0  USELESS:          0
L1I USEFUL LOAD PREFETCHES:          0 PREFETCH ISSUED TO LOWER LEVEL:          0  ACCURACY: -nan
L1I TIMELY PREFETCHES:          0 LATE PREFETCHES: 0 DROPPED PREFETCHES: 0
L1I PREFETCHES SAME FILL-ORIGIN LEVEL: 0 DIFFERENT FILL-ORIGIN LEVEL: 0
L1I AVERAGE MISS LATENCY: -nan cycles
L1I RQ	ACCESS:   12708734	FORWARD:          0	MERGED:    4031412	TO_CACHE:    8677322

BTB TOTAL     ACCESS:    7871105  HIT:    7694621  MISS:     176484  HIT %:    97.7578  MISS %:    2.24218   MPKI: 3.52968
BTB BRANCH_DIRECT_JUMP	ACCESS:     517023  HIT:     517009  MISS:         14
BTB BRANCH_INDIRECT	ACCESS:          0  HIT:          0  MISS:          0
BTB BRANCH_CONDITIONAL	ACCESS:    6663904  HIT:    6663823  MISS:         81
BTB BRANCH_DIRECT_CALL	ACCESS:     345089  HIT:     345086  MISS:          3
BTB BRANCH_INDIRECT_CALL	ACCESS:          0  HIT:          0  MISS:          0
BTB BRANCH_RETURN	ACCESS:     345089  HIT:     168703  MISS:     176386
BTB BRANCH_OTHER ACCESS:          0  HIT:          0  MISS:          0

L2C TOTAL     ACCESS:     716427  HIT:     509078  MISS:     207349  HIT %:    71.0579  MISS %:    28.9421   MPKI: 4.14698
L2C LOAD      ACCESS:     478038  HIT:     349203  MISS:     128835  HIT %:    73.0492  MISS %:    26.9508   MPKI: 2.5767
L2C DATA LOAD MPKI: 2.5767
L2C INSTRUCTION LOAD MPKI: 0
L2C RFO       ACCESS:     106189  HIT:      27681  MISS:      78508  HIT %:    26.0677  MISS %:    73.9323   MPKI: 1.57016
L2C WRITEBACK ACCESS:     132200  HIT:     132194  MISS:          6  HIT %:    99.9955  MISS %: 0.00453858   MPKI: 0.00012
L2C PREFETCH  REQUESTED:          0  ISSUED:          0  USEFUL:          0  USELESS:          0
L2C USEFUL LOAD PREFETCHES:          0 PREFETCH ISSUED TO LOWER LEVEL:          0  ACCURACY: -nan
L2C TIMELY PREFETCHES:          0 LATE PREFETCHES: 0 DROPPED PREFETCHES: 0
L2C PREFETCHES SAME FILL-ORIGIN LEVEL: 0 DIFFERENT FILL-ORIGIN LEVEL: 0
L2C AVERAGE MISS LATENCY: 78.976 cycles
L2C RQ	ACCESS:     584235	FORWARD:          0	MERGED:          0	TO_CACHE:     584229
L2C WQ	ACCESS:     132201	FORWARD:          6	MERGED:          0	TO_CACHE:     132201

L2C Instructions Evicting Data 0
L2C Translations Evicting Data 0
L2C Data Evicting Data 207343
L2C Instructions Evicting Instructions 0
L2C Translations Evicting Instructions 0
L2C Data Evicting Instructions 0
L2C Instructions Evicting Translations 0
L2C Translations Evicting Translations 0
L2C Data Evicting Translations 0
L2C Dense regions hint from L2: 0
PSCL5 PREFETCH  REQUESTED:          0  ISSUED:          0  USEFUL:          0  USELESS:          0
PSCL5 USEFUL LOAD PREFETCHES:          0 PREFETCH ISSUED TO LOWER LEVEL:          0  ACCURACY: -nan
PSCL5 TIMELY PREFETCHES:          0 LATE PREFETCHES: 0 DROPPED PREFETCHES: 0
PSCL5 PREFETCHES SAME FILL-ORIGIN LEVEL: 0 DIFFERENT FILL-ORIGIN LEVEL: 0

PSCL4 PREFETCH  REQUESTED:          0  ISSUED:          0  USEFUL:          0  USELESS:          0
PSCL4 USEFUL LOAD PREFETCHES:          0 PREFETCH ISSUED TO LOWER LEVEL:          0  ACCURACY: -nan
PSCL4 TIMELY PREFETCHES:          0 LATE PREFETCHES: 0 DROPPED PREFETCHES: 0
PSCL4 PREFETCHES SAME FILL-ORIGIN LEVEL: 0 DIFFERENT FILL-ORIGIN LEVEL: 0

PSCL3 PREFETCH  REQUESTED:          0  ISSUED:          0  USEFUL:          0  USELESS:          0
PSCL3 USEFUL LOAD PREFETCHES:          0 PREFETCH ISSUED TO LOWER LEVEL:          0  ACCURACY: -nan
PSCL3 TIMELY PREFETCHES:          0 LATE PREFETCHES: 0 DROPPED PREFETCHES: 0
PSCL3 PREFETCHES SAME FILL-ORIGIN LEVEL: 0 DIFFERENT FILL-ORIGIN LEVEL: 0

PSCL2 PREFETCH  REQUESTED:          0  ISSUED:          0  USEFUL:          0  USELESS:          0
PSCL2 USEFUL LOAD PREFETCHES:          0 PREFETCH ISSUED TO LOWER LEVEL:          0  ACCURACY: -nan
PSCL2 TIMELY PREFETCHES:          0 LATE PREFETCHES: 0 DROPPED PREFETCHES: 0
PSCL2 PREFETCHES SAME FILL-ORIGIN LEVEL: 0 DIFFERENT FILL-ORIGIN LEVEL: 0

LLC TOTAL     ACCESS:     306732  HIT:     265622  MISS:      41110  HIT %:    86.5974  MISS %:    13.4026   MPKI: 0.8222
LLC LOAD      ACCESS:     128835  HIT:     108292  MISS:      20543  HIT %:    84.0548  MISS %:    15.9452   MPKI: 0.41086
LLC RFO       ACCESS:      78509  HIT:      57958  MISS:      20551  HIT %:    73.8234  MISS %:    26.1766   MPKI: 0.41102
LLC WRITEBACK ACCESS:      99388  HIT:      99372  MISS:         16  HIT %:    99.9839  MISS %:  0.0160985   MPKI: 0.00032
LLC PREFETCH  REQUESTED:          0  ISSUED:          0  USEFUL:          0  USELESS:          0
LLC USEFUL LOAD PREFETCHES:          0 PREFETCH ISSUED TO LOWER LEVEL:          0  ACCURACY: -nan
LLC TIMELY PREFETCHES:          0 LATE PREFETCHES: 0 DROPPED PREFETCHES: 0
LLC PREFETCHES SAME FILL-ORIGIN LEVEL: 0 DIFFERENT FILL-ORIGIN LEVEL: 0
LLC AVERAGE MISS LATENCY: 247.01 cycles
LLC RQ	ACCESS:     207345	FORWARD:          0	MERGED:          0	TO_CACHE:     207345
LLC WQ	ACCESS:      99388	FORWARD:          0	MERGED:          0	TO_CACHE:      99388

LLC Dense regions hint to LLC: 0

RAW hits: 1161332
Loads Generated: 18762619
Loads sent to L1D: 17601285
Stores Generated: 4533564
Stores sent to L1D: 4533576
Major fault: 0 Minor fault: 1408
Allocated PAGES: 1408

DRAM Statistics
 CHANNEL 0
 RQ ROW_BUFFER_HIT:       3837  ROW_BUFFER_MISS:      37183
 DBUS_CONGESTED:          8
 WQ ROW_BUFFER_HIT:       6739  ROW_BUFFER_MISS:      26392  FULL:          0

 AVG_CONGESTED_CYCLE: 5
 All warmup complete: 2
Channel 0 Bank busy for read cycles: 0
Channel 0 Bank busy for write cycles: 0
Channel 0
Rank 0
0banks busy for read cycles: 67415123
0banks busy for write cycles: 12272
1banks busy for read cycles: 2906015
1banks busy for write cycles: 1679187
2banks busy for read cycles: 575956
2banks busy for write cycles: 521593
3banks busy for read cycles: 168834
3banks busy for write cycles: 206543
4banks busy for read cycles: 85474
4banks busy for write cycles: 106569
5banks busy for read cycles: 64762
5banks busy for write cycles: 65567
6banks busy for read cycles: 51124
6banks busy for write cycles: 43558
7banks busy for read cycles: 38013
7banks busy for write cycles: 61420
8banks busy for read cycles: 12419
8banks busy for write cycles: 155580

CPU 0 Branch Prediction Accuracy: 91.5918% MPKI: 13.4016 Average ROB Occupancy at Mispredict: 20.4224
Branch types
NOT_BRANCH: 42030390 84.0608%
BRANCH_DIRECT_JUMP: 517023 1.03405%
BRANCH_INDIRECT: 0 0%
BRANCH_CONDITIONAL: 6762167 13.5243%
BRANCH_DIRECT_CALL: 345089 0.690178%
BRANCH_INDIRECT_CALL: 0 0%
BRANCH_RETURN: 345089 0.690178%
BRANCH_OTHER: 0 0%

DRAM PAGES: 1048576
Allocated PAGES: 1408
