
*** ChampSim Multicore Out-of-Order Simulator ***

Warmup Instructions: 50000000
Simulation Instructions: 50000000
Number of CPUs: 1
LLC sets: 2048
LLC ways: 16
Off-chip DRAM Size: 4096 MB Channels: 1 Width: 64-bit Data Rate: 6400 MT/s
CPU 0 runs ./traces/SPEC-CPU2017/401.bzip2-226B.champsimtrace.xz
.xz
CPU 0 Bimodal branch predictor
BTB has LRU replacement policy
ITLB has LRU replacement policy
DTLB has LRU replacement policy
STLB has LRU replacement policy
L1I has LRU replacement policy
L1D has LRU replacement policy
Ideal ISB Prefetching
L2C has LRU replacement policy
LLC has LRU replacement policy
Heartbeat CPU 0 instructions: 10000003 cycles: 3100637 heartbeat IPC: 3.22514 cumulative IPC: 3.22514 (Simulation time: 0 hr 1 min 0 sec) 
Heartbeat CPU 0 instructions: 20000000 cycles: 6263553 heartbeat IPC: 3.16164 cumulative IPC: 3.19308 (Simulation time: 0 hr 2 min 5 sec) 
Heartbeat CPU 0 instructions: 30000001 cycles: 9426350 heartbeat IPC: 3.16176 cumulative IPC: 3.18257 (Simulation time: 0 hr 2 min 56 sec) 
Heartbeat CPU 0 instructions: 40000000 cycles: 12203506 heartbeat IPC: 3.60081 cumulative IPC: 3.27775 (Simulation time: 0 hr 3 min 47 sec) 
Heartbeat CPU 0 instructions: 50000000 cycles: 15049388 heartbeat IPC: 3.51385 cumulative IPC: 3.32239 (Simulation time: 0 hr 4 min 47 sec) 

Warmup complete CPU 0 instructions: 50000004 cycles: 15049389 (Simulation time: 0 hr 4 min 47 sec) 

Heartbeat CPU 0 instructions: 60000000 cycles: 29076030 heartbeat IPC: 0.712929 cumulative IPC: 0.712929 (Simulation time: 0 hr 5 min 58 sec) 
Heartbeat CPU 0 instructions: 70000002 cycles: 43444022 heartbeat IPC: 0.695992 cumulative IPC: 0.704358 (Simulation time: 0 hr 7 min 14 sec) 
Heartbeat CPU 0 instructions: 80000000 cycles: 59208686 heartbeat IPC: 0.63433 cumulative IPC: 0.679359 (Simulation time: 0 hr 8 min 32 sec) 
Heartbeat CPU 0 instructions: 90000003 cycles: 74614673 heartbeat IPC: 0.649099 cumulative IPC: 0.671532 (Simulation time: 0 hr 9 min 32 sec) 
Heartbeat CPU 0 instructions: 100000000 cycles: 88754156 heartbeat IPC: 0.707239 cumulative IPC: 0.678382 (Simulation time: 0 hr 10 min 40 sec) 
Finished CPU 0 instructions: 50000003 cycles: 73704781 cumulative IPC: 0.678382 (Simulation time: 0 hr 10 min 40 sec) 

ChampSim completed all CPUs

Region of Interest Statistics

CPU 0 cumulative IPC: 0.678382 instructions: 50000003 cycles: 73704781
ITLB TOTAL     ACCESS:    7577217  HIT:    7577217  MISS:          0  HIT %:        100  MISS %:          0   MPKI: 0
ITLB LOAD TRANSLATION ACCESS:    7577217  HIT:    7577217  MISS:          0  HIT %:        100  MISS %:          0   MPKI: 0
ITLB PREFETCH  REQUESTED:          0  ISSUED:          0  USEFUL:          0  USELESS:          0
ITLB USEFUL LOAD PREFETCHES:          0 PREFETCH ISSUED TO LOWER LEVEL:          0  ACCURACY: -nan
ITLB TIMELY PREFETCHES:          0 LATE PREFETCHES: 0 DROPPED PREFETCHES: 0
ITLB PREFETCHES SAME FILL-ORIGIN LEVEL: 0 DIFFERENT FILL-ORIGIN LEVEL: 0
ITLB AVERAGE MISS LATENCY: -nan cycles
ITLB RQ	ACCESS:    8676995	FORWARD:          0	MERGED:    1099778	TO_CACHE:    7577217

DTLB TOTAL     ACCESS:   10601714  HIT:   10329026  MISS:     272688  HIT %:    97.4279  MISS %:    2.57211   MPKI: 5.45376
DTLB LOAD TRANSLATION ACCESS:   10601714  HIT:   10329026  MISS:     272688  HIT %:    97.4279  MISS %:    2.57211   MPKI: 5.45376
DTLB PREFETCH  REQUESTED:          0  ISSUED:          0  USEFUL:          0  USELESS:          0
DTLB USEFUL LOAD PREFETCHES:          0 PREFETCH ISSUED TO LOWER LEVEL:          0  ACCURACY: -nan
DTLB TIMELY PREFETCHES:          0 LATE PREFETCHES: 0 DROPPED PREFETCHES: 0
DTLB PREFETCHES SAME FILL-ORIGIN LEVEL: 0 DIFFERENT FILL-ORIGIN LEVEL: 0
DTLB AVERAGE MISS LATENCY: 9.07909 cycles
DTLB RQ	ACCESS:   13296692	FORWARD:          0	MERGED:    2676554	TO_CACHE:   10620138

STLB TOTAL     ACCESS:     272688  HIT:     272688  MISS:          0  HIT %:        100  MISS %:          0   MPKI: 0
STLB LOAD TRANSLATION ACCESS:     272688  HIT:     272688  MISS:          0  HIT %:        100  MISS %:          0   MPKI: 0
STLB PREFETCH  REQUESTED:          0  ISSUED:          0  USEFUL:          0  USELESS:          0
STLB USEFUL LOAD PREFETCHES:          0 PREFETCH ISSUED TO LOWER LEVEL:          0  ACCURACY: -nan
STLB TIMELY PREFETCHES:          0 LATE PREFETCHES: 0 DROPPED PREFETCHES: 0
STLB PREFETCHES SAME FILL-ORIGIN LEVEL: 0 DIFFERENT FILL-ORIGIN LEVEL: 0
STLB AVERAGE MISS LATENCY: -nan cycles
STLB RQ	ACCESS:     272688	FORWARD:          0	MERGED:          0	TO_CACHE:     272688

STLB Hit, L1D data hit: 0
STLB Hit, L2C data hit: 0
STLB Hit, LLC data hit: 0
STLB Hit, LLC data miss: 0
STLB STLB hints to L2: 0
L1D TOTAL     ACCESS:   13169686  HIT:   12585457  MISS:     584229  HIT %:    95.5638  MISS %:    4.43616   MPKI: 11.6846
L1D LOAD      ACCESS:    9116912  HIT:    8638873  MISS:     478039  HIT %:    94.7566  MISS %:    5.24343   MPKI: 9.56078
L1D RFO       ACCESS:    4052774  HIT:    3946584  MISS:     106190  HIT %:    97.3798  MISS %:    2.62018   MPKI: 2.1238
L1D PREFETCH  REQUESTED:          0  ISSUED:          0  USEFUL:          0  USELESS:          0
L1D USEFUL LOAD PREFETCHES:          0 PREFETCH ISSUED TO LOWER LEVEL:          0  ACCURACY: -nan
L1D TIMELY PREFETCHES:          0 LATE PREFETCHES: 0 DROPPED PREFETCHES: 0
L1D PREFETCHES SAME FILL-ORIGIN LEVEL: 0 DIFFERENT FILL-ORIGIN LEVEL: 0
L1D AVERAGE MISS LATENCY: 43.5287 cycles
L1D RQ	ACCESS:   17601669	FORWARD:          0	MERGED:    8304523	TO_CACHE:    9193490
L1D WQ	ACCESS:    4533576	FORWARD:     103656	MERGED:     430374	TO_CACHE:    4103202

L1D UNIQUE REGIONS ACCESSED: 0
L1D REGIONS CONFLICTS: 0
L1D Cross Page Prefetch Requests: 0
L1D Same Page Prefetch Requests: 0
L1D ROI Sum of L1D PQ occupancy: 0
L1D PREFETCHES PUSHED FROM L2C: 0
L1I TOTAL     ACCESS:    8676994  HIT:    8676994  MISS:          0  HIT %:        100  MISS %:          0   MPKI: 0
L1I LOAD      ACCESS:    8676994  HIT:    8676994  MISS:          0  HIT %:        100  MISS %:          0   MPKI: 0
L1I PREFETCH  REQUESTED:          0  ISSUED:          0  USEFUL:          0  USELESS:          0
L1I USEFUL LOAD PREFETCHES:          0 PREFETCH ISSUED TO LOWER LEVEL:          0  ACCURACY: -nan
L1I TIMELY PREFETCHES:          0 LATE PREFETCHES: 0 DROPPED PREFETCHES: 0
L1I PREFETCHES SAME FILL-ORIGIN LEVEL: 0 DIFFERENT FILL-ORIGIN LEVEL: 0
L1I AVERAGE MISS LATENCY: -nan cycles
L1I RQ	ACCESS:   12705425	FORWARD:          0	MERGED:    4028430	TO_CACHE:    8676995

BTB TOTAL     ACCESS:    7871105  HIT:    7694621  MISS:     176484  HIT %:    97.7578  MISS %:    2.24218   MPKI: 3.52968
BTB BRANCH_DIRECT_JUMP	ACCESS:     517023  HIT:     517009  MISS:         14
BTB BRANCH_INDIRECT	ACCESS:          0  HIT:          0  MISS:          0
BTB BRANCH_CONDITIONAL	ACCESS:    6663904  HIT:    6663823  MISS:         81
BTB BRANCH_DIRECT_CALL	ACCESS:     345089  HIT:     345086  MISS:          3
BTB BRANCH_INDIRECT_CALL	ACCESS:          0  HIT:          0  MISS:          0
BTB BRANCH_RETURN	ACCESS:     345089  HIT:     168703  MISS:     176386
BTB BRANCH_OTHER ACCESS:          0  HIT:          0  MISS:          0

L2C TOTAL     ACCESS:    1031513  HIT:     660659  MISS:     370854  HIT %:    64.0476  MISS %:    35.9524   MPKI: 7.41708
L2C LOAD      ACCESS:     478037  HIT:     358306  MISS:     119731  HIT %:    74.9536  MISS %:    25.0464   MPKI: 2.39462
L2C DATA LOAD MPKI: 2.39462
L2C INSTRUCTION LOAD MPKI: 0
L2C RFO       ACCESS:     106185  HIT:      19476  MISS:      86709  HIT %:    18.3416  MISS %:    81.6584   MPKI: 1.73418
L2C PREFETCH  ACCESS:     315094  HIT:     150789  MISS:     164305  HIT %:    47.8552  MISS %:    52.1448   MPKI: 3.2861
AGUS PREFETCH L1 MISS: 0
L2C DATA PREFETCH MPKI: 3.2861
L2C INSTRUCTION PREFETCH MPKI: 0
L2C WRITEBACK ACCESS:     132197  HIT:     132088  MISS:        109  HIT %:    99.9175  MISS %:  0.0824527   MPKI: 0.00218
L2C PREFETCH  REQUESTED:     362256  ISSUED:     344807  USEFUL:      42183  USELESS:     124520
L2C USEFUL LOAD PREFETCHES:      42183 PREFETCH ISSUED TO LOWER LEVEL:     166538  ACCURACY: 25.3294
L2C TIMELY PREFETCHES:      42183 LATE PREFETCHES: 2233 DROPPED PREFETCHES: 0
L2C PREFETCHES SAME FILL-ORIGIN LEVEL: 166538 DIFFERENT FILL-ORIGIN LEVEL: 0
L2C AVERAGE MISS LATENCY: 62.4321 cycles
L2C RQ	ACCESS:     584231	FORWARD:          0	MERGED:          0	TO_CACHE:     584224
L2C WQ	ACCESS:     132198	FORWARD:          8	MERGED:          0	TO_CACHE:     132198
L2C PQ	ACCESS:     344807	FORWARD:          0	MERGED:      18959	TO_CACHE:     325847

L2C Instructions Evicting Data 0
L2C Translations Evicting Data 0
L2C Data Evicting Data 370745
L2C Instructions Evicting Instructions 0
L2C Translations Evicting Instructions 0
L2C Data Evicting Instructions 0
L2C Instructions Evicting Translations 0
L2C Translations Evicting Translations 0
L2C Data Evicting Translations 0
L2C Dense regions hint from L2: 0
PSCL5 PREFETCH  REQUESTED:          0  ISSUED:          0  USEFUL:          0  USELESS:          0
PSCL5 USEFUL LOAD PREFETCHES:          0 PREFETCH ISSUED TO LOWER LEVEL:          0  ACCURACY: -nan
PSCL5 TIMELY PREFETCHES:          0 LATE PREFETCHES: 0 DROPPED PREFETCHES: 0
PSCL5 PREFETCHES SAME FILL-ORIGIN LEVEL: 0 DIFFERENT FILL-ORIGIN LEVEL: 0

PSCL4 PREFETCH  REQUESTED:          0  ISSUED:          0  USEFUL:          0  USELESS:          0
PSCL4 USEFUL LOAD PREFETCHES:          0 PREFETCH ISSUED TO LOWER LEVEL:          0  ACCURACY: -nan
PSCL4 TIMELY PREFETCHES:          0 LATE PREFETCHES: 0 DROPPED PREFETCHES: 0
PSCL4 PREFETCHES SAME FILL-ORIGIN LEVEL: 0 DIFFERENT FILL-ORIGIN LEVEL: 0

PSCL3 PREFETCH  REQUESTED:          0  ISSUED:          0  USEFUL:          0  USELESS:          0
PSCL3 USEFUL LOAD PREFETCHES:          0 PREFETCH ISSUED TO LOWER LEVEL:          0  ACCURACY: -nan
PSCL3 TIMELY PREFETCHES:          0 LATE PREFETCHES: 0 DROPPED PREFETCHES: 0
PSCL3 PREFETCHES SAME FILL-ORIGIN LEVEL: 0 DIFFERENT FILL-ORIGIN LEVEL: 0

PSCL2 PREFETCH  REQUESTED:          0  ISSUED:          0  USEFUL:          0  USELESS:          0
PSCL2 USEFUL LOAD PREFETCHES:          0 PREFETCH ISSUED TO LOWER LEVEL:          0  ACCURACY: -nan
PSCL2 TIMELY PREFETCHES:          0 LATE PREFETCHES: 0 DROPPED PREFETCHES: 0
PSCL2 PREFETCHES SAME FILL-ORIGIN LEVEL: 0 DIFFERENT FILL-ORIGIN LEVEL: 0

LLC TOTAL     ACCESS:     477262  HIT:     432633  MISS:      44629  HIT %:     90.649  MISS %:    9.35105   MPKI: 0.89258
LLC LOAD      ACCESS:     117496  HIT:     101981  MISS:      15515  HIT %:    86.7953  MISS %:    13.2047   MPKI: 0.3103
LLC RFO       ACCESS:      86710  HIT:      64287  MISS:      22423  HIT %:    74.1402  MISS %:    25.8598   MPKI: 0.44846
LLC PREFETCH  ACCESS:     166537  HIT:     159849  MISS:       6688  HIT %:    95.9841  MISS %:    4.01592   MPKI: 0.13376
AGUS PREFETCH L1 MISS: 0
LLC WRITEBACK ACCESS:     106519  HIT:     106516  MISS:          3  HIT %:    99.9972  MISS %:  0.0028164   MPKI: 6e-05
LLC PREFETCH  REQUESTED:          0  ISSUED:          0  USEFUL:       5836  USELESS:       3438
LLC USEFUL LOAD PREFETCHES:       5836 PREFETCH ISSUED TO LOWER LEVEL:       6688  ACCURACY: 87.2608
LLC TIMELY PREFETCHES:       5836 LATE PREFETCHES: 0 DROPPED PREFETCHES: 0
LLC PREFETCHES SAME FILL-ORIGIN LEVEL: 0 DIFFERENT FILL-ORIGIN LEVEL: 0
LLC AVERAGE MISS LATENCY: 269.544 cycles
LLC RQ	ACCESS:     204209	FORWARD:          0	MERGED:          0	TO_CACHE:     204207
LLC WQ	ACCESS:     106519	FORWARD:          3	MERGED:          0	TO_CACHE:     106519
LLC PQ	ACCESS:     166538	FORWARD:          0	MERGED:          0	TO_CACHE:     166537

LLC Dense regions hint to LLC: 0

RAW hits: 1160948
Loads Generated: 18762619
Loads sent to L1D: 17601669
Stores Generated: 4533564
Stores sent to L1D: 4533576
Major fault: 0 Minor fault: 1408
Allocated PAGES: 1408
Prefetcher final stats
Training Unit Size: 135
Addr table size: 43357 43358


Triggers: 175954
No Prediction: 56564 32.147
Stream end: 64911
No translation: 65682837 37329.6
Predictions: 478033 271.681


Stream divergence: 43262 24.5871
Stream divergence -- new stream: 0

DRAM Statistics
 CHANNEL 0
 RQ ROW_BUFFER_HIT:       4707  ROW_BUFFER_MISS:      39806
 DBUS_CONGESTED:          5
 WQ ROW_BUFFER_HIT:       6436  ROW_BUFFER_MISS:      30926  FULL:          0

 AVG_CONGESTED_CYCLE: 6
 All warmup complete: 2
Channel 0 Bank busy for read cycles: 0
Channel 0 Bank busy for write cycles: 0
Channel 0
Rank 0
0banks busy for read cycles: 66871367
0banks busy for write cycles: 12951
1banks busy for read cycles: 2732027
1banks busy for write cycles: 1682961
2banks busy for read cycles: 598647
2banks busy for write cycles: 552370
3banks busy for read cycles: 206972
3banks busy for write cycles: 211395
4banks busy for read cycles: 110458
4banks busy for write cycles: 100490
5banks busy for read cycles: 86533
5banks busy for write cycles: 61280
6banks busy for read cycles: 67122
6banks busy for write cycles: 49998
7banks busy for read cycles: 53745
7banks busy for write cycles: 81505
8banks busy for read cycles: 22133
8banks busy for write cycles: 202828

CPU 0 Branch Prediction Accuracy: 91.5918% MPKI: 13.4016 Average ROB Occupancy at Mispredict: 20.3495
Branch types
NOT_BRANCH: 42030390 84.0608%
BRANCH_DIRECT_JUMP: 517023 1.03405%
BRANCH_INDIRECT: 0 0%
BRANCH_CONDITIONAL: 6762167 13.5243%
BRANCH_DIRECT_CALL: 345089 0.690178%
BRANCH_INDIRECT_CALL: 0 0%
BRANCH_RETURN: 345089 0.690178%
BRANCH_OTHER: 0 0%

DRAM PAGES: 1048576
Allocated PAGES: 1408
