
*** ChampSim Multicore Out-of-Order Simulator ***

Warmup Instructions: 50000000
Simulation Instructions: 50000000
Number of CPUs: 1
LLC sets: 2048
LLC ways: 16
Off-chip DRAM Size: 4096 MB Channels: 1 Width: 64-bit Data Rate: 6400 MT/s
CPU 0 runs ./traces/SPEC-CPU2017/401.bzip2-226B.champsimtrace.xz
.xz
CPU 0 Bimodal branch predictor
BTB has LRU replacement policy
ITLB has LRU replacement policy
DTLB has LRU replacement policy
STLB has LRU replacement policy
L1I has LRU replacement policy
L1D has LRU replacement policy
L2C has LRU replacement policy
LLC has LRU replacement policy
Heartbeat CPU 0 instructions: 10000003 cycles: 3089407 heartbeat IPC: 3.23687 cumulative IPC: 3.23687 (Simulation time: 0 hr 8 min 7 sec) 
Heartbeat CPU 0 instructions: 20000000 cycles: 6242695 heartbeat IPC: 3.17129 cumulative IPC: 3.20374 (Simulation time: 0 hr 18 min 28 sec) 
Heartbeat CPU 0 instructions: 30000001 cycles: 9404078 heartbeat IPC: 3.16317 cumulative IPC: 3.19011 (Simulation time: 0 hr 26 min 35 sec) 
Heartbeat CPU 0 instructions: 40000000 cycles: 12178330 heartbeat IPC: 3.60457 cumulative IPC: 3.28452 (Simulation time: 0 hr 34 min 48 sec) 
Heartbeat CPU 0 instructions: 50000000 cycles: 15024300 heartbeat IPC: 3.51374 cumulative IPC: 3.32794 (Simulation time: 0 hr 45 min 48 sec) 

Warmup complete CPU 0 instructions: 50000004 cycles: 15024301 (Simulation time: 0 hr 45 min 48 sec) 

Heartbeat CPU 0 instructions: 60000000 cycles: 28966378 heartbeat IPC: 0.717253 cumulative IPC: 0.717253 (Simulation time: 0 hr 47 min 54 sec) 
Heartbeat CPU 0 instructions: 70000002 cycles: 43209558 heartbeat IPC: 0.702091 cumulative IPC: 0.709591 (Simulation time: 0 hr 49 min 57 sec) 
Heartbeat CPU 0 instructions: 80000000 cycles: 58878177 heartbeat IPC: 0.638218 cumulative IPC: 0.68409 (Simulation time: 0 hr 52 min 4 sec) 
Heartbeat CPU 0 instructions: 90000003 cycles: 74133744 heartbeat IPC: 0.655499 cumulative IPC: 0.676711 (Simulation time: 0 hr 54 min 2 sec) 
Heartbeat CPU 0 instructions: 100000000 cycles: 88206982 heartbeat IPC: 0.710568 cumulative IPC: 0.683222 (Simulation time: 0 hr 56 min 0 sec) 
Finished CPU 0 instructions: 50000003 cycles: 73182695 cumulative IPC: 0.683222 (Simulation time: 0 hr 56 min 0 sec) 

ChampSim completed all CPUs

Region of Interest Statistics

CPU 0 cumulative IPC: 0.683222 instructions: 50000003 cycles: 73182695
ITLB TOTAL     ACCESS:    7582327  HIT:    7582327  MISS:          0  HIT %:        100  MISS %:          0   MPKI: 0
ITLB LOAD TRANSLATION ACCESS:    7582327  HIT:    7582327  MISS:          0  HIT %:        100  MISS %:          0   MPKI: 0
ITLB PREFETCH  REQUESTED:          0  ISSUED:          0  USEFUL:          0  USELESS:          0
ITLB USEFUL LOAD PREFETCHES:          0 PREFETCH ISSUED TO LOWER LEVEL:          0  ACCURACY: -nan
ITLB TIMELY PREFETCHES:          0 LATE PREFETCHES: 0 DROPPED PREFETCHES: 0
ITLB PREFETCHES SAME FILL-ORIGIN LEVEL: 0 DIFFERENT FILL-ORIGIN LEVEL: 0
ITLB AVERAGE MISS LATENCY: -nan cycles
ITLB RQ	ACCESS:    8689033	FORWARD:          0	MERGED:    1106706	TO_CACHE:    7582327

DTLB TOTAL     ACCESS:   10622307  HIT:   10349581  MISS:     272726  HIT %:    97.4325  MISS %:    2.56748   MPKI: 5.45452
DTLB LOAD TRANSLATION ACCESS:   10622307  HIT:   10349581  MISS:     272726  HIT %:    97.4325  MISS %:    2.56748   MPKI: 5.45452
DTLB PREFETCH  REQUESTED:          0  ISSUED:          0  USEFUL:          0  USELESS:          0
DTLB USEFUL LOAD PREFETCHES:          0 PREFETCH ISSUED TO LOWER LEVEL:          0  ACCURACY: -nan
DTLB TIMELY PREFETCHES:          0 LATE PREFETCHES: 0 DROPPED PREFETCHES: 0
DTLB PREFETCHES SAME FILL-ORIGIN LEVEL: 0 DIFFERENT FILL-ORIGIN LEVEL: 0
DTLB AVERAGE MISS LATENCY: 9.08087 cycles
DTLB RQ	ACCESS:   13320050	FORWARD:          0	MERGED:    2680269	TO_CACHE:   10639781

STLB TOTAL     ACCESS:    1326564  HIT:    1326564  MISS:          0  HIT %:        100  MISS %:          0   MPKI: 0
STLB LOAD TRANSLATION ACCESS:     272726  HIT:     272726  MISS:          0  HIT %:        100  MISS %:          0   MPKI: 0
STLB TRANSLATION FROM L1D PREFETCHER ACCESS:    1053838  HIT:    1053838  MISS:          0  HIT %:        100  MISS %:          0   MPKI: 0
STLB PREFETCH  REQUESTED:          0  ISSUED:          0  USEFUL:          0  USELESS:          0
STLB USEFUL LOAD PREFETCHES:          0 PREFETCH ISSUED TO LOWER LEVEL:          0  ACCURACY: -nan
STLB TIMELY PREFETCHES:          0 LATE PREFETCHES: 0 DROPPED PREFETCHES: 0
STLB PREFETCHES SAME FILL-ORIGIN LEVEL: 0 DIFFERENT FILL-ORIGIN LEVEL: 0
STLB AVERAGE MISS LATENCY: -nan cycles
STLB RQ	ACCESS:    1646034	FORWARD:          0	MERGED:     319470	TO_CACHE:    1326564

STLB Hit, L1D data hit: 0
STLB Hit, L2C data hit: 0
STLB Hit, LLC data hit: 0
STLB Hit, LLC data miss: 0
STLB STLB hints to L2: 0
L1D TOTAL     ACCESS:   14560281  HIT:   13320921  MISS:    1239360  HIT %:    91.4881  MISS %:    8.51192   MPKI: 24.7872
L1D LOAD      ACCESS:    9159824  HIT:    8640799  MISS:     519025  HIT %:    94.3337  MISS %:    5.66632   MPKI: 10.3805
L1D RFO       ACCESS:    4050440  HIT:    3942971  MISS:     107469  HIT %:    97.3467  MISS %:    2.65327   MPKI: 2.14938
L1D PREFETCH  ACCESS:    1350017  HIT:     737151  MISS:     612866  HIT %:    54.6031  MISS %:    45.3969   MPKI: 12.2573
AGUS PREFETCH L1 MISS: 0
L1D PREFETCH  REQUESTED:    2756308  ISSUED:    2746825  USEFUL:      62296  USELESS:     550927
L1D USEFUL LOAD PREFETCHES:      62296 PREFETCH ISSUED TO LOWER LEVEL:     618505  ACCURACY: 10.072
L1D TIMELY PREFETCHES:      62296 LATE PREFETCHES: 5639 DROPPED PREFETCHES: 0
L1D PREFETCHES SAME FILL-ORIGIN LEVEL: 618505 DIFFERENT FILL-ORIGIN LEVEL: 0
L1D AVERAGE MISS LATENCY: 32.5807 cycles
L1D RQ	ACCESS:   17600606	FORWARD:          0	MERGED:    8280941	TO_CACHE:    9216318
L1D WQ	ACCESS:    4533576	FORWARD:     103556	MERGED:     429844	TO_CACHE:    4103732
L1D PQ	ACCESS:    1373517	FORWARD:          0	MERGED:          0	TO_CACHE:    1373308

L1D UNIQUE REGIONS ACCESSED: 0
L1D REGIONS CONFLICTS: 0
L1D Cross Page Prefetch Requests: 0
L1D Same Page Prefetch Requests: 2887047
L1D ROI Sum of L1D PQ occupancy: 17795803
L1D PREFETCHES PUSHED FROM L2C: 0
L1I TOTAL     ACCESS:    8689032  HIT:    8689032  MISS:          0  HIT %:        100  MISS %:          0   MPKI: 0
L1I LOAD      ACCESS:    8689032  HIT:    8689032  MISS:          0  HIT %:        100  MISS %:          0   MPKI: 0
L1I PREFETCH  REQUESTED:          0  ISSUED:          0  USEFUL:          0  USELESS:          0
L1I USEFUL LOAD PREFETCHES:          0 PREFETCH ISSUED TO LOWER LEVEL:          0  ACCURACY: -nan
L1I TIMELY PREFETCHES:          0 LATE PREFETCHES: 0 DROPPED PREFETCHES: 0
L1I PREFETCHES SAME FILL-ORIGIN LEVEL: 0 DIFFERENT FILL-ORIGIN LEVEL: 0
L1I AVERAGE MISS LATENCY: -nan cycles
L1I RQ	ACCESS:   12725912	FORWARD:          0	MERGED:    4036879	TO_CACHE:    8689033

BTB TOTAL     ACCESS:    7871105  HIT:    7694621  MISS:     176484  HIT %:    97.7578  MISS %:    2.24218   MPKI: 3.52968
BTB BRANCH_DIRECT_JUMP	ACCESS:     517023  HIT:     517009  MISS:         14
BTB BRANCH_INDIRECT	ACCESS:          0  HIT:          0  MISS:          0
BTB BRANCH_CONDITIONAL	ACCESS:    6663904  HIT:    6663823  MISS:         81
BTB BRANCH_DIRECT_CALL	ACCESS:     345089  HIT:     345086  MISS:          3
BTB BRANCH_INDIRECT_CALL	ACCESS:          0  HIT:          0  MISS:          0
BTB BRANCH_RETURN	ACCESS:     345089  HIT:     168703  MISS:     176386
BTB BRANCH_OTHER ACCESS:          0  HIT:          0  MISS:          0

L2C TOTAL     ACCESS:    1377289  HIT:     980864  MISS:     396425  HIT %:     71.217  MISS %:     28.783   MPKI: 7.9285
L2C LOAD      ACCESS:     513384  HIT:     391823  MISS:     121561  HIT %:    76.3216  MISS %:    23.6784   MPKI: 2.43122
L2C DATA LOAD MPKI: 2.43122
L2C INSTRUCTION LOAD MPKI: 0
L2C RFO       ACCESS:     107465  HIT:      22097  MISS:      85368  HIT %:     20.562  MISS %:     79.438   MPKI: 1.70736
L2C PREFETCH  ACCESS:     618490  HIT:     429035  MISS:     189455  HIT %:    69.3681  MISS %:    30.6319   MPKI: 3.7891
AGUS PREFETCH L1 MISS: 0
L2C DATA PREFETCH MPKI: 3.7891
L2C INSTRUCTION PREFETCH MPKI: 0
L2C WRITEBACK ACCESS:     137950  HIT:     137909  MISS:         41  HIT %:    99.9703  MISS %:  0.0297209   MPKI: 0.00082
L2C PREFETCH  REQUESTED:          0  ISSUED:          0  USEFUL:      32251  USELESS:     158681
L2C USEFUL LOAD PREFETCHES:      32251 PREFETCH ISSUED TO LOWER LEVEL:     189455  ACCURACY: 17.023
L2C TIMELY PREFETCHES:      32251 LATE PREFETCHES: 0 DROPPED PREFETCHES: 0
L2C PREFETCHES SAME FILL-ORIGIN LEVEL: 0 DIFFERENT FILL-ORIGIN LEVEL: 0
L2C AVERAGE MISS LATENCY: 54.2672 cycles
L2C RQ	ACCESS:     620857	FORWARD:          0	MERGED:          0	TO_CACHE:     620851
L2C WQ	ACCESS:     137951	FORWARD:         21	MERGED:          0	TO_CACHE:     137951
L2C PQ	ACCESS:     618505	FORWARD:          0	MERGED:          0	TO_CACHE:     618490

L2C Instructions Evicting Data 0
L2C Translations Evicting Data 0
L2C Data Evicting Data 396384
L2C Instructions Evicting Instructions 0
L2C Translations Evicting Instructions 0
L2C Data Evicting Instructions 0
L2C Instructions Evicting Translations 0
L2C Translations Evicting Translations 0
L2C Data Evicting Translations 0
L2C Dense regions hint from L2: 0
PSCL5 PREFETCH  REQUESTED:          0  ISSUED:          0  USEFUL:          0  USELESS:          0
PSCL5 USEFUL LOAD PREFETCHES:          0 PREFETCH ISSUED TO LOWER LEVEL:          0  ACCURACY: -nan
PSCL5 TIMELY PREFETCHES:          0 LATE PREFETCHES: 0 DROPPED PREFETCHES: 0
PSCL5 PREFETCHES SAME FILL-ORIGIN LEVEL: 0 DIFFERENT FILL-ORIGIN LEVEL: 0

PSCL4 PREFETCH  REQUESTED:          0  ISSUED:          0  USEFUL:          0  USELESS:          0
PSCL4 USEFUL LOAD PREFETCHES:          0 PREFETCH ISSUED TO LOWER LEVEL:          0  ACCURACY: -nan
PSCL4 TIMELY PREFETCHES:          0 LATE PREFETCHES: 0 DROPPED PREFETCHES: 0
PSCL4 PREFETCHES SAME FILL-ORIGIN LEVEL: 0 DIFFERENT FILL-ORIGIN LEVEL: 0

PSCL3 PREFETCH  REQUESTED:          0  ISSUED:          0  USEFUL:          0  USELESS:          0
PSCL3 USEFUL LOAD PREFETCHES:          0 PREFETCH ISSUED TO LOWER LEVEL:          0  ACCURACY: -nan
PSCL3 TIMELY PREFETCHES:          0 LATE PREFETCHES: 0 DROPPED PREFETCHES: 0
PSCL3 PREFETCHES SAME FILL-ORIGIN LEVEL: 0 DIFFERENT FILL-ORIGIN LEVEL: 0

PSCL2 PREFETCH  REQUESTED:          0  ISSUED:          0  USEFUL:          0  USELESS:          0
PSCL2 USEFUL LOAD PREFETCHES:          0 PREFETCH ISSUED TO LOWER LEVEL:          0  ACCURACY: -nan
PSCL2 TIMELY PREFETCHES:          0 LATE PREFETCHES: 0 DROPPED PREFETCHES: 0
PSCL2 PREFETCHES SAME FILL-ORIGIN LEVEL: 0 DIFFERENT FILL-ORIGIN LEVEL: 0

LLC TOTAL     ACCESS:     503145  HIT:     458019  MISS:      45126  HIT %:    91.0312  MISS %:    8.96879   MPKI: 0.90252
LLC LOAD      ACCESS:     121561  HIT:     112294  MISS:       9267  HIT %:    92.3767  MISS %:    7.62333   MPKI: 0.18534
LLC RFO       ACCESS:      85369  HIT:      66056  MISS:      19313  HIT %:     77.377  MISS %:     22.623   MPKI: 0.38626
LLC PREFETCH  ACCESS:     189454  HIT:     172909  MISS:      16545  HIT %:     91.267  MISS %:    8.73299   MPKI: 0.3309
AGUS PREFETCH L1 MISS: 0
LLC WRITEBACK ACCESS:     106761  HIT:     106760  MISS:          1  HIT %:    99.9991  MISS %: 0.000936672   MPKI: 2e-05
LLC PREFETCH  REQUESTED:          0  ISSUED:          0  USEFUL:      11583  USELESS:       9561
LLC USEFUL LOAD PREFETCHES:      11583 PREFETCH ISSUED TO LOWER LEVEL:      16545  ACCURACY: 70.0091
LLC TIMELY PREFETCHES:      11583 LATE PREFETCHES: 0 DROPPED PREFETCHES: 0
LLC PREFETCHES SAME FILL-ORIGIN LEVEL: 0 DIFFERENT FILL-ORIGIN LEVEL: 0
LLC AVERAGE MISS LATENCY: 213.182 cycles
LLC RQ	ACCESS:     206931	FORWARD:          0	MERGED:          0	TO_CACHE:     206931
LLC WQ	ACCESS:     106761	FORWARD:          1	MERGED:          0	TO_CACHE:     106761
LLC PQ	ACCESS:     189455	FORWARD:          0	MERGED:          0	TO_CACHE:     189454

LLC Dense regions hint to LLC: 0

RAW hits: 1162011
Loads Generated: 18762619
Loads sent to L1D: 17600606
Stores Generated: 4533564
Stores sent to L1D: 4533576
Major fault: 0 Minor fault: 1408
Allocated PAGES: 1408

stream: 
stream:times selected: 4825289
stream:pref_filled: 814972
stream:pref_useful: 59276
stream:pref_late: 3008
stream:misses: 162669
stream:misses_by_poll: 0

CS: 
CS:times selected: 305644
CS:pref_filled: 98304
CS:pref_useful: 82430
CS:pref_late: 7574
CS:misses: 32991
CS:misses_by_poll: 32

CPLX: 
CPLX:times selected: 4441474
CPLX:pref_filled: 111264
CPLX:pref_useful: 13504
CPLX:pref_late: 3751
CPLX:misses: 539301
CPLX:misses_by_poll: 128

NL_L1: 
NL:times selected: 73123
NL:pref_filled: 7992
NL:pref_useful: 565
NL:pref_late: 27
NL:misses: 8032
NL:misses_by_poll: 2

total selections: 9645530
total_filled: 612866
total_useful: 62296
total_late: 15147
total_polluted: 162
total_misses_after_warmup: 575517
conflicts: 1260799

test: 2458863

DRAM Statistics
 CHANNEL 0
 RQ ROW_BUFFER_HIT:       4238  ROW_BUFFER_MISS:      40805
 DBUS_CONGESTED:          9
 WQ ROW_BUFFER_HIT:       6509  ROW_BUFFER_MISS:      30122  FULL:          0

 AVG_CONGESTED_CYCLE: 6
 All warmup complete: 2
Channel 0 Bank busy for read cycles: 0
Channel 0 Bank busy for write cycles: 0
Channel 0
Rank 0
0banks busy for read cycles: 65619580
0banks busy for write cycles: 14058
1banks busy for read cycles: 3232869
1banks busy for write cycles: 1849397
2banks busy for read cycles: 712948
2banks busy for write cycles: 598962
3banks busy for read cycles: 237906
3banks busy for write cycles: 261315
4banks busy for read cycles: 101121
4banks busy for write cycles: 117257
5banks busy for read cycles: 52331
5banks busy for write cycles: 66805
6banks busy for read cycles: 32401
6banks busy for write cycles: 48758
7banks busy for read cycles: 19194
7banks busy for write cycles: 66120
8banks busy for read cycles: 6506
8banks busy for write cycles: 145168

CPU 0 Branch Prediction Accuracy: 91.5918% MPKI: 13.4016 Average ROB Occupancy at Mispredict: 20.2127
Branch types
NOT_BRANCH: 42030390 84.0608%
BRANCH_DIRECT_JUMP: 517023 1.03405%
BRANCH_INDIRECT: 0 0%
BRANCH_CONDITIONAL: 6762167 13.5243%
BRANCH_DIRECT_CALL: 345089 0.690178%
BRANCH_INDIRECT_CALL: 0 0%
BRANCH_RETURN: 345089 0.690178%
BRANCH_OTHER: 0 0%

DRAM PAGES: 1048576
Allocated PAGES: 1408
