
*** ChampSim Multicore Out-of-Order Simulator ***

Warmup Instructions: 50000000
Simulation Instructions: 50000000
Number of CPUs: 1
LLC sets: 2048
LLC ways: 16
Off-chip DRAM Size: 4096 MB Channels: 1 Width: 64-bit Data Rate: 6400 MT/s
CPU 0 runs ./traces/SPEC-CPU2017/401.bzip2-226B.champsimtrace.xz
.xz
CPU 0 Bimodal branch predictor
BTB has LRU replacement policy
ITLB has LRU replacement policy
DTLB has LRU replacement policy
STLB has LRU replacement policy
L1I has LRU replacement policy
L1D has LRU replacement policy
L2C has LRU replacement policy
LLC has LRU replacement policy
Heartbeat CPU 0 instructions: 10000003 cycles: 3090853 heartbeat IPC: 3.23535 cumulative IPC: 3.23535 (Simulation time: 0 hr 0 min 59 sec) 
Heartbeat CPU 0 instructions: 20000000 cycles: 6245335 heartbeat IPC: 3.17009 cumulative IPC: 3.20239 (Simulation time: 0 hr 2 min 11 sec) 
Heartbeat CPU 0 instructions: 30000002 cycles: 9407244 heartbeat IPC: 3.16265 cumulative IPC: 3.18903 (Simulation time: 0 hr 3 min 23 sec) 
Heartbeat CPU 0 instructions: 40000000 cycles: 12181958 heartbeat IPC: 3.60397 cumulative IPC: 3.28354 (Simulation time: 0 hr 5 min 0 sec) 
Heartbeat CPU 0 instructions: 50000000 cycles: 15027500 heartbeat IPC: 3.51427 cumulative IPC: 3.32723 (Simulation time: 0 hr 6 min 31 sec) 

Warmup complete CPU 0 instructions: 50000004 cycles: 15027501 (Simulation time: 0 hr 6 min 31 sec) 

Heartbeat CPU 0 instructions: 60000000 cycles: 29021218 heartbeat IPC: 0.714606 cumulative IPC: 0.714606 (Simulation time: 0 hr 7 min 57 sec) 
Heartbeat CPU 0 instructions: 70000002 cycles: 43290038 heartbeat IPC: 0.700829 cumulative IPC: 0.70765 (Simulation time: 0 hr 9 min 35 sec) 
Heartbeat CPU 0 instructions: 80000000 cycles: 58981146 heartbeat IPC: 0.637303 cumulative IPC: 0.682537 (Simulation time: 0 hr 11 min 14 sec) 
Heartbeat CPU 0 instructions: 90000003 cycles: 74259471 heartbeat IPC: 0.654522 cumulative IPC: 0.675311 (Simulation time: 0 hr 12 min 34 sec) 
Heartbeat CPU 0 instructions: 100000000 cycles: 88340219 heartbeat IPC: 0.710189 cumulative IPC: 0.68201 (Simulation time: 0 hr 13 min 52 sec) 
Finished CPU 0 instructions: 50000003 cycles: 73312732 cumulative IPC: 0.68201 (Simulation time: 0 hr 13 min 52 sec) 

ChampSim completed all CPUs

Region of Interest Statistics

CPU 0 cumulative IPC: 0.68201 instructions: 50000003 cycles: 73312732
ITLB TOTAL     ACCESS:    7597029  HIT:    7597029  MISS:          0  HIT %:        100  MISS %:          0   MPKI: 0
ITLB LOAD TRANSLATION ACCESS:    7597029  HIT:    7597029  MISS:          0  HIT %:        100  MISS %:          0   MPKI: 0
ITLB PREFETCH  REQUESTED:          0  ISSUED:          0  USEFUL:          0  USELESS:          0
ITLB USEFUL LOAD PREFETCHES:          0 PREFETCH ISSUED TO LOWER LEVEL:          0  ACCURACY: -nan
ITLB TIMELY PREFETCHES:          0 LATE PREFETCHES: 0 DROPPED PREFETCHES: 0
ITLB PREFETCHES SAME FILL-ORIGIN LEVEL: 0 DIFFERENT FILL-ORIGIN LEVEL: 0
ITLB AVERAGE MISS LATENCY: -nan cycles
ITLB RQ	ACCESS:    8721121	FORWARD:          0	MERGED:    1124092	TO_CACHE:    7597029

DTLB TOTAL     ACCESS:   10644409  HIT:   10371706  MISS:     272703  HIT %:    97.4381  MISS %:    2.56194   MPKI: 5.45406
DTLB LOAD TRANSLATION ACCESS:   10644409  HIT:   10371706  MISS:     272703  HIT %:    97.4381  MISS %:    2.56194   MPKI: 5.45406
DTLB PREFETCH  REQUESTED:          0  ISSUED:          0  USEFUL:          0  USELESS:          0
DTLB USEFUL LOAD PREFETCHES:          0 PREFETCH ISSUED TO LOWER LEVEL:          0  ACCURACY: -nan
DTLB TIMELY PREFETCHES:          0 LATE PREFETCHES: 0 DROPPED PREFETCHES: 0
DTLB PREFETCHES SAME FILL-ORIGIN LEVEL: 0 DIFFERENT FILL-ORIGIN LEVEL: 0
DTLB AVERAGE MISS LATENCY: 9.06986 cycles
DTLB RQ	ACCESS:   13341055	FORWARD:          0	MERGED:    2679707	TO_CACHE:   10661348

STLB TOTAL     ACCESS:     799980  HIT:     799980  MISS:          0  HIT %:        100  MISS %:          0   MPKI: 0
STLB LOAD TRANSLATION ACCESS:     272703  HIT:     272703  MISS:          0  HIT %:        100  MISS %:          0   MPKI: 0
STLB TRANSLATION FROM L1D PREFETCHER ACCESS:     527277  HIT:     527277  MISS:          0  HIT %:        100  MISS %:          0   MPKI: 0
STLB PREFETCH  REQUESTED:          0  ISSUED:          0  USEFUL:          0  USELESS:          0
STLB USEFUL LOAD PREFETCHES:          0 PREFETCH ISSUED TO LOWER LEVEL:          0  ACCURACY: -nan
STLB TIMELY PREFETCHES:          0 LATE PREFETCHES: 0 DROPPED PREFETCHES: 0
STLB PREFETCHES SAME FILL-ORIGIN LEVEL: 0 DIFFERENT FILL-ORIGIN LEVEL: 0
STLB AVERAGE MISS LATENCY: -nan cycles
STLB RQ	ACCESS:    1095042	FORWARD:          0	MERGED:     295062	TO_CACHE:     799980

STLB Hit, L1D data hit: 0
STLB Hit, L2C data hit: 0
STLB Hit, LLC data hit: 0
STLB Hit, LLC data miss: 0
STLB STLB hints to L2: 0
L1D TOTAL     ACCESS:   14005515  HIT:   12808020  MISS:    1197495  HIT %:    91.4498  MISS %:    8.55017   MPKI: 23.9499
L1D LOAD      ACCESS:    9180453  HIT:    8730449  MISS:     450004  HIT %:    95.0982  MISS %:    4.90176   MPKI: 9.00008
L1D RFO       ACCESS:    4051092  HIT:    3943716  MISS:     107376  HIT %:    97.3495  MISS %:    2.65054   MPKI: 2.14752
L1D PREFETCH  ACCESS:     773970  HIT:     133855  MISS:     640115  HIT %:    17.2946  MISS %:    82.7054   MPKI: 12.8023
AGUS PREFETCH L1 MISS: 0
L1D PREFETCH  REQUESTED:    1765008  ISSUED:    1644685  USEFUL:      98469  USELESS:     542058
L1D USEFUL LOAD PREFETCHES:      98469 PREFETCH ISSUED TO LOWER LEVEL:     651996  ACCURACY: 15.1027
L1D TIMELY PREFETCHES:      98469 LATE PREFETCHES: 11879 DROPPED PREFETCHES: 0
L1D PREFETCHES SAME FILL-ORIGIN LEVEL: 651996 DIFFERENT FILL-ORIGIN LEVEL: 0
L1D AVERAGE MISS LATENCY: 33.5388 cycles
L1D RQ	ACCESS:   17602600	FORWARD:          0	MERGED:    8261122	TO_CACHE:    9237487
L1D WQ	ACCESS:    4533576	FORWARD:     103998	MERGED:     430008	TO_CACHE:    4103568
L1D PQ	ACCESS:     822346	FORWARD:          0	MERGED:          0	TO_CACHE:     822339

L1D UNIQUE REGIONS ACCESSED: 0
L1D REGIONS CONFLICTS: 0
L1D Cross Page Prefetch Requests: 434587
L1D Same Page Prefetch Requests: 937749
L1D ROI Sum of L1D PQ occupancy: 11424338
L1D PREFETCHES PUSHED FROM L2C: 0
L1I TOTAL     ACCESS:    8721120  HIT:    8721120  MISS:          0  HIT %:        100  MISS %:          0   MPKI: 0
L1I LOAD      ACCESS:    8721120  HIT:    8721120  MISS:          0  HIT %:        100  MISS %:          0   MPKI: 0
L1I PREFETCH  REQUESTED:          0  ISSUED:          0  USEFUL:          0  USELESS:          0
L1I USEFUL LOAD PREFETCHES:          0 PREFETCH ISSUED TO LOWER LEVEL:          0  ACCURACY: -nan
L1I TIMELY PREFETCHES:          0 LATE PREFETCHES: 0 DROPPED PREFETCHES: 0
L1I PREFETCHES SAME FILL-ORIGIN LEVEL: 0 DIFFERENT FILL-ORIGIN LEVEL: 0
L1I AVERAGE MISS LATENCY: -nan cycles
L1I RQ	ACCESS:   12695621	FORWARD:          0	MERGED:    3974500	TO_CACHE:    8721121

BTB TOTAL     ACCESS:    7871105  HIT:    7694621  MISS:     176484  HIT %:    97.7578  MISS %:    2.24218   MPKI: 3.52968
BTB BRANCH_DIRECT_JUMP	ACCESS:     517023  HIT:     517009  MISS:         14
BTB BRANCH_INDIRECT	ACCESS:          0  HIT:          0  MISS:          0
BTB BRANCH_CONDITIONAL	ACCESS:    6663904  HIT:    6663823  MISS:         81
BTB BRANCH_DIRECT_CALL	ACCESS:     345089  HIT:     345086  MISS:          3
BTB BRANCH_INDIRECT_CALL	ACCESS:          0  HIT:          0  MISS:          0
BTB BRANCH_RETURN	ACCESS:     345089  HIT:     168703  MISS:     176386
BTB BRANCH_OTHER ACCESS:          0  HIT:          0  MISS:          0

L2C TOTAL     ACCESS:    1334978  HIT:     934500  MISS:     400478  HIT %:    70.0012  MISS %:    29.9988   MPKI: 8.00956
L2C LOAD      ACCESS:     438120  HIT:     325048  MISS:     113072  HIT %:    74.1915  MISS %:    25.8085   MPKI: 2.26144
L2C DATA LOAD MPKI: 2.26144
L2C INSTRUCTION LOAD MPKI: 0
L2C RFO       ACCESS:     107370  HIT:      21805  MISS:      85565  HIT %:    20.3083  MISS %:    79.6917   MPKI: 1.7113
L2C PREFETCH  ACCESS:     651996  HIT:     450182  MISS:     201814  HIT %:    69.0467  MISS %:    30.9533   MPKI: 4.03628
AGUS PREFETCH L1 MISS: 0
L2C DATA PREFETCH MPKI: 4.03628
L2C INSTRUCTION PREFETCH MPKI: 0
L2C WRITEBACK ACCESS:     137492  HIT:     137465  MISS:         27  HIT %:    99.9804  MISS %:  0.0196375   MPKI: 0.00054
L2C PREFETCH  REQUESTED:          0  ISSUED:          0  USEFUL:      40184  USELESS:     163192
L2C USEFUL LOAD PREFETCHES:      40184 PREFETCH ISSUED TO LOWER LEVEL:     201814  ACCURACY: 19.9114
L2C TIMELY PREFETCHES:      40184 LATE PREFETCHES: 0 DROPPED PREFETCHES: 0
L2C PREFETCHES SAME FILL-ORIGIN LEVEL: 0 DIFFERENT FILL-ORIGIN LEVEL: 0
L2C AVERAGE MISS LATENCY: 54.5769 cycles
L2C RQ	ACCESS:     545501	FORWARD:          0	MERGED:          0	TO_CACHE:     545492
L2C WQ	ACCESS:     137493	FORWARD:          9	MERGED:          0	TO_CACHE:     137493
L2C PQ	ACCESS:     651996	FORWARD:          0	MERGED:          0	TO_CACHE:     651996

L2C Instructions Evicting Data 0
L2C Translations Evicting Data 0
L2C Data Evicting Data 400451
L2C Instructions Evicting Instructions 0
L2C Translations Evicting Instructions 0
L2C Data Evicting Instructions 0
L2C Instructions Evicting Translations 0
L2C Translations Evicting Translations 0
L2C Data Evicting Translations 0
L2C Dense regions hint from L2: 0
PSCL5 PREFETCH  REQUESTED:          0  ISSUED:          0  USEFUL:          0  USELESS:          0
PSCL5 USEFUL LOAD PREFETCHES:          0 PREFETCH ISSUED TO LOWER LEVEL:          0  ACCURACY: -nan
PSCL5 TIMELY PREFETCHES:          0 LATE PREFETCHES: 0 DROPPED PREFETCHES: 0
PSCL5 PREFETCHES SAME FILL-ORIGIN LEVEL: 0 DIFFERENT FILL-ORIGIN LEVEL: 0

PSCL4 PREFETCH  REQUESTED:          0  ISSUED:          0  USEFUL:          0  USELESS:          0
PSCL4 USEFUL LOAD PREFETCHES:          0 PREFETCH ISSUED TO LOWER LEVEL:          0  ACCURACY: -nan
PSCL4 TIMELY PREFETCHES:          0 LATE PREFETCHES: 0 DROPPED PREFETCHES: 0
PSCL4 PREFETCHES SAME FILL-ORIGIN LEVEL: 0 DIFFERENT FILL-ORIGIN LEVEL: 0

PSCL3 PREFETCH  REQUESTED:          0  ISSUED:          0  USEFUL:          0  USELESS:          0
PSCL3 USEFUL LOAD PREFETCHES:          0 PREFETCH ISSUED TO LOWER LEVEL:          0  ACCURACY: -nan
PSCL3 TIMELY PREFETCHES:          0 LATE PREFETCHES: 0 DROPPED PREFETCHES: 0
PSCL3 PREFETCHES SAME FILL-ORIGIN LEVEL: 0 DIFFERENT FILL-ORIGIN LEVEL: 0

PSCL2 PREFETCH  REQUESTED:          0  ISSUED:          0  USEFUL:          0  USELESS:          0
PSCL2 USEFUL LOAD PREFETCHES:          0 PREFETCH ISSUED TO LOWER LEVEL:          0  ACCURACY: -nan
PSCL2 TIMELY PREFETCHES:          0 LATE PREFETCHES: 0 DROPPED PREFETCHES: 0
PSCL2 PREFETCHES SAME FILL-ORIGIN LEVEL: 0 DIFFERENT FILL-ORIGIN LEVEL: 0

LLC TOTAL     ACCESS:     507386  HIT:     462536  MISS:      44850  HIT %:    91.1606  MISS %:    8.83942   MPKI: 0.897
LLC LOAD      ACCESS:     113072  HIT:     102150  MISS:      10922  HIT %:    90.3407  MISS %:    9.65933   MPKI: 0.21844
LLC RFO       ACCESS:      85566  HIT:      65945  MISS:      19621  HIT %:    77.0692  MISS %:    22.9308   MPKI: 0.39242
LLC PREFETCH  ACCESS:     201813  HIT:     187508  MISS:      14305  HIT %:    92.9118  MISS %:    7.08825   MPKI: 0.2861
AGUS PREFETCH L1 MISS: 0
LLC WRITEBACK ACCESS:     106935  HIT:     106933  MISS:          2  HIT %:    99.9981  MISS %:  0.0018703   MPKI: 4e-05
LLC PREFETCH  REQUESTED:          0  ISSUED:          0  USEFUL:      11433  USELESS:       6561
LLC USEFUL LOAD PREFETCHES:      11433 PREFETCH ISSUED TO LOWER LEVEL:      14305  ACCURACY: 79.9231
LLC TIMELY PREFETCHES:      11433 LATE PREFETCHES: 0 DROPPED PREFETCHES: 0
LLC PREFETCHES SAME FILL-ORIGIN LEVEL: 0 DIFFERENT FILL-ORIGIN LEVEL: 0
LLC AVERAGE MISS LATENCY: 219.443 cycles
LLC RQ	ACCESS:     198639	FORWARD:          0	MERGED:          0	TO_CACHE:     198639
LLC WQ	ACCESS:     106935	FORWARD:          1	MERGED:          0	TO_CACHE:     106935
LLC PQ	ACCESS:     201814	FORWARD:          0	MERGED:          0	TO_CACHE:     201813

LLC Dense regions hint to LLC: 0

RAW hits: 1160017
Loads Generated: 18762619
Loads sent to L1D: 17602600
Stores Generated: 4533564
Stores sent to L1D: 4533576
Major fault: 0 Minor fault: 1408
Allocated PAGES: 1408

stream: 
stream:times selected: 688586
stream:pref_filled: 521243
stream:pref_useful: 40383
stream:pref_late: 2042
stream:misses: 150710
stream:misses_by_poll: 0

CS: 
CS:times selected: 46648
CS:pref_filled: 39034
CS:pref_useful: 32634
CS:pref_late: 4081
CS:misses: 43589
CS:misses_by_poll: 8

CPLX: 
CPLX:times selected: 632529
CPLX:pref_filled: 18019
CPLX:pref_useful: 5263
CPLX:pref_late: 2100
CPLX:misses: 539265
CPLX:misses_by_poll: 8

NL_L1: 
NL:times selected: 3529
NL:pref_filled: 2544
NL:pref_useful: 232
NL:pref_late: 11
NL:misses: 3952
NL:misses_by_poll: 1

Coverage: 17.9533
total selections: 1371292
total_filled: 640115
total_useful: 98469
total_late: 10195
total_polluted: 17
total_misses_after_warmup: 507036
conflicts: 5455

test: 297699
ISB Prefetcher final stats
Training Unit Size: 124
Addr table size: 36143 36148


Triggers: 688589
No Prediction: 92530 13.4376
Stream end: 553742
No translation: 562687558 81716
Predictions: 667717 96.9689


Stream divergence: 172648 25.0727
Stream divergence -- new stream: 0

DRAM Statistics
 CHANNEL 0
 RQ ROW_BUFFER_HIT:       4195  ROW_BUFFER_MISS:      40589
 DBUS_CONGESTED:          4
 WQ ROW_BUFFER_HIT:       5739  ROW_BUFFER_MISS:      31067  FULL:          0

 AVG_CONGESTED_CYCLE: 3
 All warmup complete: 2
Channel 0 Bank busy for read cycles: 0
Channel 0 Bank busy for write cycles: 0
Channel 0
Rank 0
0banks busy for read cycles: 66595735
0banks busy for write cycles: 12333
1banks busy for read cycles: 2456244
1banks busy for write cycles: 1435611
2banks busy for read cycles: 789436
2banks busy for write cycles: 638231
3banks busy for read cycles: 298907
3banks busy for write cycles: 294407
4banks busy for read cycles: 166884
4banks busy for write cycles: 143263
5banks busy for read cycles: 69709
5banks busy for write cycles: 75723
6banks busy for read cycles: 39266
6banks busy for write cycles: 51451
7banks busy for read cycles: 23171
7banks busy for write cycles: 66101
8banks busy for read cycles: 6426
8banks busy for write cycles: 149835

CPU 0 Branch Prediction Accuracy: 91.5918% MPKI: 13.4016 Average ROB Occupancy at Mispredict: 20.1514
Branch types
NOT_BRANCH: 42030390 84.0608%
BRANCH_DIRECT_JUMP: 517023 1.03405%
BRANCH_INDIRECT: 0 0%
BRANCH_CONDITIONAL: 6762167 13.5243%
BRANCH_DIRECT_CALL: 345089 0.690178%
BRANCH_INDIRECT_CALL: 0 0%
BRANCH_RETURN: 345089 0.690178%
BRANCH_OTHER: 0 0%

DRAM PAGES: 1048576
Allocated PAGES: 1408
