
*** ChampSim Multicore Out-of-Order Simulator ***

Warmup Instructions: 50000000
Simulation Instructions: 50000000
Number of CPUs: 1
LLC sets: 2048
LLC ways: 16
Off-chip DRAM Size: 4096 MB Channels: 1 Width: 64-bit Data Rate: 6400 MT/s
CPU 0 runs ./traces/SPEC-CPU2017/410.bwaves-1963B.champsimtrace.xz
.xz
CPU 0 Bimodal branch predictor
BTB has LRU replacement policy
ITLB has LRU replacement policy
DTLB has LRU replacement policy
STLB has LRU replacement policy
L1I has LRU replacement policy
L1D has LRU replacement policy
L2C has LRU replacement policy
LLC has LRU replacement policy
Heartbeat CPU 0 instructions: 10000000 cycles: 4191941 heartbeat IPC: 2.38553 cumulative IPC: 2.38553 (Simulation time: 0 hr 1 min 24 sec) 
Heartbeat CPU 0 instructions: 20000000 cycles: 8383577 heartbeat IPC: 2.3857 cumulative IPC: 2.38562 (Simulation time: 0 hr 2 min 51 sec) 
Heartbeat CPU 0 instructions: 30000001 cycles: 12575520 heartbeat IPC: 2.38553 cumulative IPC: 2.38559 (Simulation time: 0 hr 4 min 15 sec) 
Heartbeat CPU 0 instructions: 40000000 cycles: 16767097 heartbeat IPC: 2.38574 cumulative IPC: 2.38562 (Simulation time: 0 hr 5 min 41 sec) 
Heartbeat CPU 0 instructions: 50000002 cycles: 20959193 heartbeat IPC: 2.38544 cumulative IPC: 2.38559 (Simulation time: 0 hr 7 min 3 sec) 

Warmup complete CPU 0 instructions: 50000002 cycles: 20959193 (Simulation time: 0 hr 7 min 3 sec) 

Heartbeat CPU 0 instructions: 60000000 cycles: 32438358 heartbeat IPC: 0.871143 cumulative IPC: 0.871143 (Simulation time: 0 hr 8 min 22 sec) 
Heartbeat CPU 0 instructions: 70000002 cycles: 43915586 heartbeat IPC: 0.871291 cumulative IPC: 0.871217 (Simulation time: 0 hr 9 min 41 sec) 
Heartbeat CPU 0 instructions: 80000000 cycles: 55379131 heartbeat IPC: 0.87233 cumulative IPC: 0.871588 (Simulation time: 0 hr 11 min 0 sec) 
Heartbeat CPU 0 instructions: 90000001 cycles: 66842025 heartbeat IPC: 0.87238 cumulative IPC: 0.871786 (Simulation time: 0 hr 11 min 55 sec) 
Heartbeat CPU 0 instructions: 100000000 cycles: 78350604 heartbeat IPC: 0.868917 cumulative IPC: 0.87121 (Simulation time: 0 hr 12 min 48 sec) 
Finished CPU 0 instructions: 50000003 cycles: 57391428 cumulative IPC: 0.87121 (Simulation time: 0 hr 12 min 48 sec) 

ChampSim completed all CPUs

Region of Interest Statistics

CPU 0 cumulative IPC: 0.87121 instructions: 50000003 cycles: 57391428
ITLB TOTAL     ACCESS:    6618174  HIT:    6618174  MISS:          0  HIT %:        100  MISS %:          0   MPKI: 0
ITLB LOAD TRANSLATION ACCESS:    6618174  HIT:    6618174  MISS:          0  HIT %:        100  MISS %:          0   MPKI: 0
ITLB PREFETCH  REQUESTED:          0  ISSUED:          0  USEFUL:          0  USELESS:          0
ITLB USEFUL LOAD PREFETCHES:          0 PREFETCH ISSUED TO LOWER LEVEL:          0  ACCURACY: -nan
ITLB TIMELY PREFETCHES:          0 LATE PREFETCHES: 0 DROPPED PREFETCHES: 0
ITLB PREFETCHES SAME FILL-ORIGIN LEVEL: 0 DIFFERENT FILL-ORIGIN LEVEL: 0
ITLB AVERAGE MISS LATENCY: -nan cycles
ITLB RQ	ACCESS:    8393460	FORWARD:          0	MERGED:    1775287	TO_CACHE:    6618173

DTLB TOTAL     ACCESS:   18998390  HIT:   18952152  MISS:      46238  HIT %:    99.7566  MISS %:   0.243379   MPKI: 0.92476
DTLB LOAD TRANSLATION ACCESS:   18998390  HIT:   18952152  MISS:      46238  HIT %:    99.7566  MISS %:   0.243379   MPKI: 0.92476
DTLB PREFETCH  REQUESTED:          0  ISSUED:          0  USEFUL:          0  USELESS:          0
DTLB USEFUL LOAD PREFETCHES:          0 PREFETCH ISSUED TO LOWER LEVEL:          0  ACCURACY: -nan
DTLB TIMELY PREFETCHES:          0 LATE PREFETCHES: 0 DROPPED PREFETCHES: 0
DTLB PREFETCHES SAME FILL-ORIGIN LEVEL: 0 DIFFERENT FILL-ORIGIN LEVEL: 0
DTLB AVERAGE MISS LATENCY: 150.604 cycles
DTLB RQ	ACCESS:   24644008	FORWARD:          0	MERGED:    5641298	TO_CACHE:   19002710

STLB TOTAL     ACCESS:     268594  HIT:     254815  MISS:      13779  HIT %:      94.87  MISS %:    5.13005   MPKI: 0.27558
STLB LOAD TRANSLATION ACCESS:      46238  HIT:      32503  MISS:      13735  HIT %:     70.295  MISS %:     29.705   MPKI: 0.2747
STLB TRANSLATION FROM L1D PREFETCHER ACCESS:     222356  HIT:     222312  MISS:         44  HIT %:    99.9802  MISS %:  0.0197881   MPKI: 0.00088
STLB PREFETCH  REQUESTED:          0  ISSUED:          0  USEFUL:         43  USELESS:          1
STLB USEFUL LOAD PREFETCHES:         43 PREFETCH ISSUED TO LOWER LEVEL:          0  ACCURACY: inf
STLB TIMELY PREFETCHES:         43 LATE PREFETCHES: 0 DROPPED PREFETCHES: 0
STLB PREFETCHES SAME FILL-ORIGIN LEVEL: 0 DIFFERENT FILL-ORIGIN LEVEL: 0
STLB AVERAGE MISS LATENCY: 453.828 cycles
STLB RQ	ACCESS:     817001	FORWARD:          0	MERGED:     548407	TO_CACHE:     268594

STLB Hit, L1D data hit: 0
STLB Hit, L2C data hit: 0
STLB Hit, LLC data hit: 0
STLB Hit, LLC data miss: 0
STLB STLB hints to L2: 0
L1D TOTAL     ACCESS:   25261596  HIT:   24296227  MISS:     965369  HIT %:    96.1785  MISS %:    3.82149   MPKI: 19.3074
L1D LOAD      ACCESS:   20809374  HIT:   20536716  MISS:     272658  HIT %:    98.6897  MISS %:    1.31027   MPKI: 5.45316
L1D RFO       ACCESS:    3731011  HIT:    3707484  MISS:      23527  HIT %:    99.3694  MISS %:    0.63058   MPKI: 0.47054
L1D PREFETCH  ACCESS:     721211  HIT:      52027  MISS:     669184  HIT %:    7.21384  MISS %:    92.7862   MPKI: 13.3837
AGUS PREFETCH L1 MISS: 0
L1D PREFETCH  REQUESTED:    1818600  ISSUED:    1541560  USEFUL:     668376  USELESS:        812
L1D USEFUL LOAD PREFETCHES:     668376 PREFETCH ISSUED TO LOWER LEVEL:     712072  ACCURACY: 93.8635
L1D TIMELY PREFETCHES:     668376 LATE PREFETCHES: 42888 DROPPED PREFETCHES: 0
L1D PREFETCHES SAME FILL-ORIGIN LEVEL: 712072 DIFFERENT FILL-ORIGIN LEVEL: 0
L1D AVERAGE MISS LATENCY: 179.717 cycles
L1D RQ	ACCESS:   27381551	FORWARD:          0	MERGED:    6252596	TO_CACHE:   20900387
L1D WQ	ACCESS:    3743681	FORWARD:     228568	MERGED:         60	TO_CACHE:    3743621
L1D PQ	ACCESS:     770797	FORWARD:          0	MERGED:         34	TO_CACHE:     770763

L1D UNIQUE REGIONS ACCESSED: 0
L1D REGIONS CONFLICTS: 0
L1D Cross Page Prefetch Requests: 2173
L1D Same Page Prefetch Requests: 1589604
L1D ROI Sum of L1D PQ occupancy: 18610166
L1D PREFETCHES PUSHED FROM L2C: 0
L1I TOTAL     ACCESS:    8393459  HIT:    8393459  MISS:          0  HIT %:        100  MISS %:          0   MPKI: 0
L1I LOAD      ACCESS:    8393459  HIT:    8393459  MISS:          0  HIT %:        100  MISS %:          0   MPKI: 0
L1I PREFETCH  REQUESTED:          0  ISSUED:          0  USEFUL:          0  USELESS:          0
L1I USEFUL LOAD PREFETCHES:          0 PREFETCH ISSUED TO LOWER LEVEL:          0  ACCURACY: -nan
L1I TIMELY PREFETCHES:          0 LATE PREFETCHES: 0 DROPPED PREFETCHES: 0
L1I PREFETCHES SAME FILL-ORIGIN LEVEL: 0 DIFFERENT FILL-ORIGIN LEVEL: 0
L1I AVERAGE MISS LATENCY: -nan cycles
L1I RQ	ACCESS:   10354827	FORWARD:          0	MERGED:    1961367	TO_CACHE:    8393460

BTB TOTAL     ACCESS:    1355683  HIT:    1355675  MISS:          8  HIT %:    99.9994  MISS %: 0.000590108   MPKI: 0.00016
BTB BRANCH_DIRECT_JUMP	ACCESS:     188214  HIT:     188210  MISS:          4
BTB BRANCH_INDIRECT	ACCESS:          0  HIT:          0  MISS:          0
BTB BRANCH_CONDITIONAL	ACCESS:    1167469  HIT:    1167465  MISS:          4
BTB BRANCH_DIRECT_CALL	ACCESS:          0  HIT:          0  MISS:          0
BTB BRANCH_INDIRECT_CALL	ACCESS:          0  HIT:          0  MISS:          0
BTB BRANCH_RETURN	ACCESS:          0  HIT:          0  MISS:          0
BTB BRANCH_OTHER ACCESS:          0  HIT:          0  MISS:          0

L2C TOTAL     ACCESS:    1002686  HIT:      83332  MISS:     919354  HIT %:    8.31088  MISS %:    91.6891   MPKI: 18.3871
L2C LOAD      ACCESS:     229770  HIT:       8381  MISS:     221389  HIT %:    3.64756  MISS %:    96.3524   MPKI: 4.42778
L2C DATA LOAD MPKI: 4.42778
L2C INSTRUCTION LOAD MPKI: 0
L2C RFO       ACCESS:      23527  HIT:          0  MISS:      23527  HIT %:          0  MISS %:        100   MPKI: 0.47054
L2C PREFETCH  ACCESS:     712072  HIT:      39438  MISS:     672634  HIT %:    5.53848  MISS %:    94.4615   MPKI: 13.4527
AGUS PREFETCH L1 MISS: 0
L2C DATA PREFETCH MPKI: 13.4527
L2C INSTRUCTION PREFETCH MPKI: 0
L2C WRITEBACK ACCESS:      23536  HIT:      23536  MISS:          0  HIT %:        100  MISS %:          0   MPKI: 0
L2C LOAD TRANSLATION ACCESS:      13737  HIT:      11949  MISS:       1788  HIT %:    86.9841  MISS %:    13.0159   MPKI: 0.03576
L2C TRANSLATION FROM L1D PREFETCHER ACCESS:         44  HIT:         28  MISS:         16  HIT %:    63.6364  MISS %:    36.3636   MPKI: 0.00032
L2C PREFETCH  REQUESTED:          0  ISSUED:          0  USEFUL:       6060  USELESS:     667170
L2C USEFUL LOAD PREFETCHES:       6060 PREFETCH ISSUED TO LOWER LEVEL:     672634  ACCURACY: 0.900936
L2C TIMELY PREFETCHES:       6060 LATE PREFETCHES: 0 DROPPED PREFETCHES: 0
L2C PREFETCHES SAME FILL-ORIGIN LEVEL: 0 DIFFERENT FILL-ORIGIN LEVEL: 0
L2C AVERAGE MISS LATENCY: 167.703 cycles
L2C RQ	ACCESS:     267078	FORWARD:          0	MERGED:          0	TO_CACHE:     267078
L2C WQ	ACCESS:      23536	FORWARD:          0	MERGED:          0	TO_CACHE:      23536
L2C PQ	ACCESS:     712072	FORWARD:          0	MERGED:          0	TO_CACHE:     712072

L2C Instructions Evicting Data 0
L2C Translations Evicting Data 1804
L2C Data Evicting Data 915743
L2C Instructions Evicting Instructions 0
L2C Translations Evicting Instructions 0
L2C Data Evicting Instructions 0
L2C Instructions Evicting Translations 0
L2C Translations Evicting Translations 0
L2C Data Evicting Translations 1807
L2C Dense regions hint from L2: 0
PSCL5 TOTAL     ACCESS:      13779  HIT:      13779  MISS:          0  HIT %:        100  MISS %:          0   MPKI: 0
PSCL5 LOAD TRANSLATION ACCESS:      13735  HIT:      13735  MISS:          0  HIT %:        100  MISS %:          0   MPKI: 0
PSCL5 TRANSLATION FROM L1D PREFETCHER ACCESS:         44  HIT:         44  MISS:          0  HIT %:        100  MISS %:          0   MPKI: 0
PSCL5 PREFETCH  REQUESTED:          0  ISSUED:          0  USEFUL:          0  USELESS:          0
PSCL5 USEFUL LOAD PREFETCHES:          0 PREFETCH ISSUED TO LOWER LEVEL:          0  ACCURACY: -nan
PSCL5 TIMELY PREFETCHES:          0 LATE PREFETCHES: 0 DROPPED PREFETCHES: 0
PSCL5 PREFETCHES SAME FILL-ORIGIN LEVEL: 0 DIFFERENT FILL-ORIGIN LEVEL: 0

PSCL4 TOTAL     ACCESS:      13779  HIT:      13779  MISS:          0  HIT %:        100  MISS %:          0   MPKI: 0
PSCL4 LOAD TRANSLATION ACCESS:      13735  HIT:      13735  MISS:          0  HIT %:        100  MISS %:          0   MPKI: 0
PSCL4 TRANSLATION FROM L1D PREFETCHER ACCESS:         44  HIT:         44  MISS:          0  HIT %:        100  MISS %:          0   MPKI: 0
PSCL4 PREFETCH  REQUESTED:          0  ISSUED:          0  USEFUL:          0  USELESS:          0
PSCL4 USEFUL LOAD PREFETCHES:          0 PREFETCH ISSUED TO LOWER LEVEL:          0  ACCURACY: -nan
PSCL4 TIMELY PREFETCHES:          0 LATE PREFETCHES: 0 DROPPED PREFETCHES: 0
PSCL4 PREFETCHES SAME FILL-ORIGIN LEVEL: 0 DIFFERENT FILL-ORIGIN LEVEL: 0

PSCL3 TOTAL     ACCESS:      13779  HIT:      13779  MISS:          0  HIT %:        100  MISS %:          0   MPKI: 0
PSCL3 LOAD TRANSLATION ACCESS:      13735  HIT:      13735  MISS:          0  HIT %:        100  MISS %:          0   MPKI: 0
PSCL3 TRANSLATION FROM L1D PREFETCHER ACCESS:         44  HIT:         44  MISS:          0  HIT %:        100  MISS %:          0   MPKI: 0
PSCL3 PREFETCH  REQUESTED:          0  ISSUED:          0  USEFUL:          0  USELESS:          0
PSCL3 USEFUL LOAD PREFETCHES:          0 PREFETCH ISSUED TO LOWER LEVEL:          0  ACCURACY: -nan
PSCL3 TIMELY PREFETCHES:          0 LATE PREFETCHES: 0 DROPPED PREFETCHES: 0
PSCL3 PREFETCHES SAME FILL-ORIGIN LEVEL: 0 DIFFERENT FILL-ORIGIN LEVEL: 0

PSCL2 TOTAL     ACCESS:      13779  HIT:      13751  MISS:         28  HIT %:    99.7968  MISS %:   0.203208   MPKI: 0.00056
PSCL2 LOAD TRANSLATION ACCESS:      13735  HIT:      13707  MISS:         28  HIT %:    99.7961  MISS %:   0.203859   MPKI: 0.00056
PSCL2 TRANSLATION FROM L1D PREFETCHER ACCESS:         44  HIT:         44  MISS:          0  HIT %:        100  MISS %:          0   MPKI: 0
PSCL2 PREFETCH  REQUESTED:          0  ISSUED:          0  USEFUL:          0  USELESS:          0
PSCL2 USEFUL LOAD PREFETCHES:          0 PREFETCH ISSUED TO LOWER LEVEL:          0  ACCURACY: -nan
PSCL2 TIMELY PREFETCHES:          0 LATE PREFETCHES: 0 DROPPED PREFETCHES: 0
PSCL2 PREFETCHES SAME FILL-ORIGIN LEVEL: 0 DIFFERENT FILL-ORIGIN LEVEL: 0

LLC TOTAL     ACCESS:     942874  HIT:      23532  MISS:     919342  HIT %:    2.49577  MISS %:    97.5042   MPKI: 18.3868
LLC LOAD      ACCESS:     221389  HIT:          0  MISS:     221389  HIT %:          0  MISS %:        100   MPKI: 4.42778
LLC RFO       ACCESS:      23527  HIT:          0  MISS:      23527  HIT %:          0  MISS %:        100   MPKI: 0.47054
LLC PREFETCH  ACCESS:     672634  HIT:          0  MISS:     672634  HIT %:          0  MISS %:        100   MPKI: 13.4527
AGUS PREFETCH L1 MISS: 0
LLC WRITEBACK ACCESS:      23520  HIT:      23520  MISS:          0  HIT %:        100  MISS %:          0   MPKI: 0
LLC LOAD TRANSLATION ACCESS:       1788  HIT:         12  MISS:       1776  HIT %:   0.671141  MISS %:    99.3289   MPKI: 0.03552
LLC TRANSLATION FROM L1D PREFETCHER ACCESS:         16  HIT:          0  MISS:         16  HIT %:          0  MISS %:        100   MPKI: 0.00032
LLC PREFETCH  REQUESTED:          0  ISSUED:          0  USEFUL:          1  USELESS:     674865
LLC USEFUL LOAD PREFETCHES:          1 PREFETCH ISSUED TO LOWER LEVEL:     672634  ACCURACY: 0.000148669
LLC TIMELY PREFETCHES:          1 LATE PREFETCHES: 0 DROPPED PREFETCHES: 0
LLC PREFETCHES SAME FILL-ORIGIN LEVEL: 0 DIFFERENT FILL-ORIGIN LEVEL: 0
LLC AVERAGE MISS LATENCY: 136.482 cycles
LLC RQ	ACCESS:     246720	FORWARD:          0	MERGED:          0	TO_CACHE:     246720
LLC WQ	ACCESS:      23520	FORWARD:          0	MERGED:          0	TO_CACHE:      23520
LLC PQ	ACCESS:     672634	FORWARD:          0	MERGED:          0	TO_CACHE:     672634

LLC Dense regions hint to LLC: 0

RAW hits: 1931780
Loads Generated: 29313331
Loads sent to L1D: 27381551
Stores Generated: 3743682
Stores sent to L1D: 3743681
Major fault: 0 Minor fault: 27369
Allocated PAGES: 27369

stream: 
stream:times selected: 445983
stream:pref_filled: 1309633
stream:pref_useful: 1309388
stream:pref_late: 43713
stream:misses: 34283
stream:misses_by_poll: 0

CS: 
CS:times selected: 108064
CS:pref_filled: 32951
CS:pref_useful: 32887
CS:pref_late: 474
CS:misses: 130628
CS:misses_by_poll: 21

CPLX: 
CPLX:times selected: 337791
CPLX:pref_filled: 84739
CPLX:pref_useful: 83984
CPLX:pref_late: 462
CPLX:misses: 371115
CPLX:misses_by_poll: 191

NL_L1: 
NL:times selected: 781
NL:pref_filled: 602
NL:pref_useful: 602
NL:pref_late: 75
NL:misses: 785
NL:misses_by_poll: 1

Coverage: 71.0257
total selections: 892619
total_filled: 669184
total_useful: 668376
total_late: 44900
total_polluted: 213
total_misses_after_warmup: 363685
conflicts: 31

test: 29586
ISB Prefetcher final stats
Training Unit Size: 14
Addr table size: 434343 434344


Triggers: 445988
No Prediction: 434426 97.4076
Stream end: 5712
No translation: 5670884 1271.53
Predictions: 11157 2.50164


Stream divergence: 12000 2.69066
Stream divergence -- new stream: 0

DRAM Statistics
 CHANNEL 0
 RQ ROW_BUFFER_HIT:     630930  ROW_BUFFER_MISS:     288412
 DBUS_CONGESTED:         33
 WQ ROW_BUFFER_HIT:       1964  ROW_BUFFER_MISS:      21564  FULL:          0

 AVG_CONGESTED_CYCLE: 4
 All warmup complete: 2
Channel 0 Bank busy for read cycles: 0
Channel 0 Bank busy for write cycles: 0
Channel 0
Rank 0
0banks busy for read cycles: 36054877
0banks busy for write cycles: 4782
1banks busy for read cycles: 6647893
1banks busy for write cycles: 193190
2banks busy for read cycles: 2494771
2banks busy for write cycles: 116180
3banks busy for read cycles: 1786609
3banks busy for write cycles: 112542
4banks busy for read cycles: 1585344
4banks busy for write cycles: 103462
5banks busy for read cycles: 1544512
5banks busy for write cycles: 91842
6banks busy for read cycles: 1901094
6banks busy for write cycles: 79224
7banks busy for read cycles: 3107171
7banks busy for write cycles: 154839
8banks busy for read cycles: 1324380
8banks busy for write cycles: 88717

CPU 0 Branch Prediction Accuracy: 83.7552% MPKI: 4.52892 Average ROB Occupancy at Mispredict: 89.6573
Branch types
NOT_BRANCH: 48605768 97.2115%
BRANCH_DIRECT_JUMP: 188214 0.376428%
BRANCH_INDIRECT: 0 0%
BRANCH_CONDITIONAL: 1205750 2.4115%
BRANCH_DIRECT_CALL: 0 0%
BRANCH_INDIRECT_CALL: 0 0%
BRANCH_RETURN: 0 0%
BRANCH_OTHER: 0 0%

DRAM PAGES: 1048576
Allocated PAGES: 27369
