
*** ChampSim Multicore Out-of-Order Simulator ***

Warmup Instructions: 50000000
Simulation Instructions: 50000000
Number of CPUs: 1
LLC sets: 2048
LLC ways: 16
Off-chip DRAM Size: 4096 MB Channels: 1 Width: 64-bit Data Rate: 6400 MT/s
CPU 0 runs ./traces/SPEC-CPU2017/410.bwaves-1963B.champsimtrace.xz
.xz
CPU 0 Bimodal branch predictor
BTB has LRU replacement policy
ITLB has LRU replacement policy
DTLB has LRU replacement policy
STLB has LRU replacement policy
L1I has LRU replacement policy
L1D has LRU replacement policy
L2C has LRU replacement policy
LLC has LRU replacement policy
Heartbeat CPU 0 instructions: 10000000 cycles: 4191270 heartbeat IPC: 2.38591 cumulative IPC: 2.38591 (Simulation time: 0 hr 8 min 43 sec) 
Heartbeat CPU 0 instructions: 20000000 cycles: 8382323 heartbeat IPC: 2.38604 cumulative IPC: 2.38597 (Simulation time: 0 hr 17 min 30 sec) 
Heartbeat CPU 0 instructions: 30000001 cycles: 12573844 heartbeat IPC: 2.38577 cumulative IPC: 2.38591 (Simulation time: 0 hr 26 min 19 sec) 
Heartbeat CPU 0 instructions: 40000000 cycles: 16764860 heartbeat IPC: 2.38606 cumulative IPC: 2.38594 (Simulation time: 0 hr 35 min 5 sec) 
Heartbeat CPU 0 instructions: 50000002 cycles: 20956367 heartbeat IPC: 2.38578 cumulative IPC: 2.38591 (Simulation time: 0 hr 43 min 32 sec) 

Warmup complete CPU 0 instructions: 50000002 cycles: 20956367 (Simulation time: 0 hr 43 min 32 sec) 

Heartbeat CPU 0 instructions: 60000000 cycles: 30521971 heartbeat IPC: 1.04541 cumulative IPC: 1.04541 (Simulation time: 0 hr 44 min 37 sec) 
Heartbeat CPU 0 instructions: 70000002 cycles: 40084670 heartbeat IPC: 1.04573 cumulative IPC: 1.04557 (Simulation time: 0 hr 45 min 38 sec) 
Heartbeat CPU 0 instructions: 80000000 cycles: 49647558 heartbeat IPC: 1.04571 cumulative IPC: 1.04562 (Simulation time: 0 hr 46 min 39 sec) 
Heartbeat CPU 0 instructions: 90000001 cycles: 59227989 heartbeat IPC: 1.04379 cumulative IPC: 1.04516 (Simulation time: 0 hr 47 min 40 sec) 
Heartbeat CPU 0 instructions: 100000000 cycles: 68808300 heartbeat IPC: 1.04381 cumulative IPC: 1.04489 (Simulation time: 0 hr 48 min 43 sec) 
Finished CPU 0 instructions: 50000003 cycles: 47851950 cumulative IPC: 1.04489 (Simulation time: 0 hr 48 min 43 sec) 

ChampSim completed all CPUs

Region of Interest Statistics

CPU 0 cumulative IPC: 1.04489 instructions: 50000003 cycles: 47851950
ITLB TOTAL     ACCESS:    6598322  HIT:    6598322  MISS:          0  HIT %:        100  MISS %:          0   MPKI: 0
ITLB LOAD TRANSLATION ACCESS:    6598322  HIT:    6598322  MISS:          0  HIT %:        100  MISS %:          0   MPKI: 0
ITLB PREFETCH  REQUESTED:          0  ISSUED:          0  USEFUL:          0  USELESS:          0
ITLB USEFUL LOAD PREFETCHES:          0 PREFETCH ISSUED TO LOWER LEVEL:          0  ACCURACY: -nan
ITLB TIMELY PREFETCHES:          0 LATE PREFETCHES: 0 DROPPED PREFETCHES: 0
ITLB PREFETCHES SAME FILL-ORIGIN LEVEL: 0 DIFFERENT FILL-ORIGIN LEVEL: 0
ITLB AVERAGE MISS LATENCY: -nan cycles
ITLB RQ	ACCESS:    8369259	FORWARD:          0	MERGED:    1770938	TO_CACHE:    6598321

DTLB TOTAL     ACCESS:   19242737  HIT:   19195278  MISS:      47459  HIT %:    99.7534  MISS %:   0.246633   MPKI: 0.94918
DTLB LOAD TRANSLATION ACCESS:   19242737  HIT:   19195278  MISS:      47459  HIT %:    99.7534  MISS %:   0.246633   MPKI: 0.94918
DTLB PREFETCH  REQUESTED:          0  ISSUED:          0  USEFUL:          0  USELESS:          0
DTLB USEFUL LOAD PREFETCHES:          0 PREFETCH ISSUED TO LOWER LEVEL:          0  ACCURACY: -nan
DTLB TIMELY PREFETCHES:          0 LATE PREFETCHES: 0 DROPPED PREFETCHES: 0
DTLB PREFETCHES SAME FILL-ORIGIN LEVEL: 0 DIFFERENT FILL-ORIGIN LEVEL: 0
DTLB AVERAGE MISS LATENCY: 148.249 cycles
DTLB RQ	ACCESS:   25027310	FORWARD:          0	MERGED:    5780343	TO_CACHE:   19246967

STLB TOTAL     ACCESS:    2833123  HIT:    2819438  MISS:      13685  HIT %:     99.517  MISS %:   0.483036   MPKI: 0.2737
STLB LOAD TRANSLATION ACCESS:      47459  HIT:      33848  MISS:      13611  HIT %:    71.3205  MISS %:    28.6795   MPKI: 0.27222
STLB TRANSLATION FROM L1D PREFETCHER ACCESS:    2785664  HIT:    2785590  MISS:         74  HIT %:    99.9973  MISS %: 0.00265646   MPKI: 0.00148
STLB PREFETCH  REQUESTED:          0  ISSUED:          0  USEFUL:         74  USELESS:          0
STLB USEFUL LOAD PREFETCHES:         74 PREFETCH ISSUED TO LOWER LEVEL:          0  ACCURACY: inf
STLB TIMELY PREFETCHES:         74 LATE PREFETCHES: 0 DROPPED PREFETCHES: 0
STLB PREFETCHES SAME FILL-ORIGIN LEVEL: 0 DIFFERENT FILL-ORIGIN LEVEL: 0
STLB AVERAGE MISS LATENCY: 461.764 cycles
STLB RQ	ACCESS:    9629838	FORWARD:          0	MERGED:    6796716	TO_CACHE:    2833122

STLB Hit, L1D data hit: 0
STLB Hit, L2C data hit: 0
STLB Hit, LLC data hit: 0
STLB Hit, LLC data miss: 0
STLB STLB hints to L2: 0
L1D TOTAL     ACCESS:   34340745  HIT:   33373599  MISS:     967146  HIT %:    97.1837  MISS %:    2.81632   MPKI: 19.3429
L1D LOAD      ACCESS:   21274601  HIT:   21224682  MISS:      49919  HIT %:    99.7654  MISS %:   0.234641   MPKI: 0.99838
L1D RFO       ACCESS:    3722775  HIT:    3699248  MISS:      23527  HIT %:     99.368  MISS %:   0.631975   MPKI: 0.47054
L1D PREFETCH  ACCESS:    9343369  HIT:    8449669  MISS:     893700  HIT %:    90.4349  MISS %:    9.56507   MPKI: 17.874
AGUS PREFETCH L1 MISS: 0
L1D PREFETCH  REQUESTED:   38561263  ISSUED:   19188088  USEFUL:     890830  USELESS:       2881
L1D USEFUL LOAD PREFETCHES:     890830 PREFETCH ISSUED TO LOWER LEVEL:     904015  ACCURACY: 98.5415
L1D TIMELY PREFETCHES:     890830 LATE PREFETCHES: 10315 DROPPED PREFETCHES: 0
L1D PREFETCHES SAME FILL-ORIGIN LEVEL: 904015 DIFFERENT FILL-ORIGIN LEVEL: 0
L1D AVERAGE MISS LATENCY: 175.811 cycles
L1D RQ	ACCESS:   27649770	FORWARD:          0	MERGED:    6108100	TO_CACHE:   21283674
L1D WQ	ACCESS:    3743681	FORWARD:     257996	MERGED:         45	TO_CACHE:    3743636
L1D PQ	ACCESS:    9605709	FORWARD:          0	MERGED:      23330	TO_CACHE:    9582379

L1D UNIQUE REGIONS ACCESSED: 0
L1D REGIONS CONFLICTS: 0
L1D Cross Page Prefetch Requests: 68311
L1D Same Page Prefetch Requests: 22293703
L1D ROI Sum of L1D PQ occupancy: 139276119
L1D PREFETCHES PUSHED FROM L2C: 0
L1I TOTAL     ACCESS:    8369258  HIT:    8369258  MISS:          0  HIT %:        100  MISS %:          0   MPKI: 0
L1I LOAD      ACCESS:    8369258  HIT:    8369258  MISS:          0  HIT %:        100  MISS %:          0   MPKI: 0
L1I PREFETCH  REQUESTED:          0  ISSUED:          0  USEFUL:          0  USELESS:          0
L1I USEFUL LOAD PREFETCHES:          0 PREFETCH ISSUED TO LOWER LEVEL:          0  ACCURACY: -nan
L1I TIMELY PREFETCHES:          0 LATE PREFETCHES: 0 DROPPED PREFETCHES: 0
L1I PREFETCHES SAME FILL-ORIGIN LEVEL: 0 DIFFERENT FILL-ORIGIN LEVEL: 0
L1I AVERAGE MISS LATENCY: -nan cycles
L1I RQ	ACCESS:   10301133	FORWARD:          0	MERGED:    1931874	TO_CACHE:    8369259

BTB TOTAL     ACCESS:    1355683  HIT:    1355675  MISS:          8  HIT %:    99.9994  MISS %: 0.000590108   MPKI: 0.00016
BTB BRANCH_DIRECT_JUMP	ACCESS:     188214  HIT:     188210  MISS:          4
BTB BRANCH_INDIRECT	ACCESS:          0  HIT:          0  MISS:          0
BTB BRANCH_CONDITIONAL	ACCESS:    1167469  HIT:    1167465  MISS:          4
BTB BRANCH_DIRECT_CALL	ACCESS:          0  HIT:          0  MISS:          0
BTB BRANCH_INDIRECT_CALL	ACCESS:          0  HIT:          0  MISS:          0
BTB BRANCH_RETURN	ACCESS:          0  HIT:          0  MISS:          0
BTB BRANCH_OTHER ACCESS:          0  HIT:          0  MISS:          0

L2C TOTAL     ACCESS:    1004372  HIT:      85042  MISS:     919330  HIT %:    8.46718  MISS %:    91.5328   MPKI: 18.3866
L2C LOAD      ACCESS:      39604  HIT:       1127  MISS:      38477  HIT %:    2.84567  MISS %:    97.1543   MPKI: 0.76954
L2C DATA LOAD MPKI: 0.76954
L2C INSTRUCTION LOAD MPKI: 0
L2C RFO       ACCESS:      23527  HIT:          0  MISS:      23527  HIT %:          0  MISS %:        100   MPKI: 0.47054
L2C PREFETCH  ACCESS:     904015  HIT:      48471  MISS:     855544  HIT %:    5.36175  MISS %:    94.6383   MPKI: 17.1109
AGUS PREFETCH L1 MISS: 0
L2C DATA PREFETCH MPKI: 17.1109
L2C INSTRUCTION PREFETCH MPKI: 0
L2C WRITEBACK ACCESS:      23539  HIT:      23539  MISS:          0  HIT %:        100  MISS %:          0   MPKI: 0
L2C LOAD TRANSLATION ACCESS:      13612  HIT:      11879  MISS:       1733  HIT %:    87.2686  MISS %:    12.7314   MPKI: 0.03466
L2C TRANSLATION FROM L1D PREFETCHER ACCESS:         75  HIT:         26  MISS:         49  HIT %:    34.6667  MISS %:    65.3333   MPKI: 0.00098
L2C PREFETCH  REQUESTED:          0  ISSUED:          0  USEFUL:        740  USELESS:     855020
L2C USEFUL LOAD PREFETCHES:        740 PREFETCH ISSUED TO LOWER LEVEL:     855544  ACCURACY: 0.0864947
L2C TIMELY PREFETCHES:        740 LATE PREFETCHES: 0 DROPPED PREFETCHES: 0
L2C PREFETCHES SAME FILL-ORIGIN LEVEL: 0 DIFFERENT FILL-ORIGIN LEVEL: 0
L2C AVERAGE MISS LATENCY: 164.789 cycles
L2C RQ	ACCESS:      76818	FORWARD:          0	MERGED:          0	TO_CACHE:      76818
L2C WQ	ACCESS:      23539	FORWARD:          0	MERGED:          0	TO_CACHE:      23539
L2C PQ	ACCESS:     904015	FORWARD:          0	MERGED:          0	TO_CACHE:     904015

L2C Instructions Evicting Data 0
L2C Translations Evicting Data 1782
L2C Data Evicting Data 915763
L2C Instructions Evicting Instructions 0
L2C Translations Evicting Instructions 0
L2C Data Evicting Instructions 0
L2C Instructions Evicting Translations 0
L2C Translations Evicting Translations 0
L2C Data Evicting Translations 1785
L2C Dense regions hint from L2: 0
PSCL5 TOTAL     ACCESS:      13685  HIT:      13685  MISS:          0  HIT %:        100  MISS %:          0   MPKI: 0
PSCL5 LOAD TRANSLATION ACCESS:      13611  HIT:      13611  MISS:          0  HIT %:        100  MISS %:          0   MPKI: 0
PSCL5 TRANSLATION FROM L1D PREFETCHER ACCESS:         74  HIT:         74  MISS:          0  HIT %:        100  MISS %:          0   MPKI: 0
PSCL5 PREFETCH  REQUESTED:          0  ISSUED:          0  USEFUL:          0  USELESS:          0
PSCL5 USEFUL LOAD PREFETCHES:          0 PREFETCH ISSUED TO LOWER LEVEL:          0  ACCURACY: -nan
PSCL5 TIMELY PREFETCHES:          0 LATE PREFETCHES: 0 DROPPED PREFETCHES: 0
PSCL5 PREFETCHES SAME FILL-ORIGIN LEVEL: 0 DIFFERENT FILL-ORIGIN LEVEL: 0

PSCL4 TOTAL     ACCESS:      13685  HIT:      13685  MISS:          0  HIT %:        100  MISS %:          0   MPKI: 0
PSCL4 LOAD TRANSLATION ACCESS:      13611  HIT:      13611  MISS:          0  HIT %:        100  MISS %:          0   MPKI: 0
PSCL4 TRANSLATION FROM L1D PREFETCHER ACCESS:         74  HIT:         74  MISS:          0  HIT %:        100  MISS %:          0   MPKI: 0
PSCL4 PREFETCH  REQUESTED:          0  ISSUED:          0  USEFUL:          0  USELESS:          0
PSCL4 USEFUL LOAD PREFETCHES:          0 PREFETCH ISSUED TO LOWER LEVEL:          0  ACCURACY: -nan
PSCL4 TIMELY PREFETCHES:          0 LATE PREFETCHES: 0 DROPPED PREFETCHES: 0
PSCL4 PREFETCHES SAME FILL-ORIGIN LEVEL: 0 DIFFERENT FILL-ORIGIN LEVEL: 0

PSCL3 TOTAL     ACCESS:      13685  HIT:      13685  MISS:          0  HIT %:        100  MISS %:          0   MPKI: 0
PSCL3 LOAD TRANSLATION ACCESS:      13611  HIT:      13611  MISS:          0  HIT %:        100  MISS %:          0   MPKI: 0
PSCL3 TRANSLATION FROM L1D PREFETCHER ACCESS:         74  HIT:         74  MISS:          0  HIT %:        100  MISS %:          0   MPKI: 0
PSCL3 PREFETCH  REQUESTED:          0  ISSUED:          0  USEFUL:          0  USELESS:          0
PSCL3 USEFUL LOAD PREFETCHES:          0 PREFETCH ISSUED TO LOWER LEVEL:          0  ACCURACY: -nan
PSCL3 TIMELY PREFETCHES:          0 LATE PREFETCHES: 0 DROPPED PREFETCHES: 0
PSCL3 PREFETCHES SAME FILL-ORIGIN LEVEL: 0 DIFFERENT FILL-ORIGIN LEVEL: 0

PSCL2 TOTAL     ACCESS:      13685  HIT:      13657  MISS:         28  HIT %:    99.7954  MISS %:   0.204604   MPKI: 0.00056
PSCL2 LOAD TRANSLATION ACCESS:      13612  HIT:      13584  MISS:         28  HIT %:    99.7943  MISS %:   0.205701   MPKI: 0.00056
PSCL2 TRANSLATION FROM L1D PREFETCHER ACCESS:         73  HIT:         73  MISS:          0  HIT %:        100  MISS %:          0   MPKI: 0
PSCL2 PREFETCH  REQUESTED:          0  ISSUED:          0  USEFUL:          0  USELESS:          0
PSCL2 USEFUL LOAD PREFETCHES:          0 PREFETCH ISSUED TO LOWER LEVEL:          0  ACCURACY: -nan
PSCL2 TIMELY PREFETCHES:          0 LATE PREFETCHES: 0 DROPPED PREFETCHES: 0
PSCL2 PREFETCHES SAME FILL-ORIGIN LEVEL: 0 DIFFERENT FILL-ORIGIN LEVEL: 0

LLC TOTAL     ACCESS:     942854  HIT:      23538  MISS:     919316  HIT %:    2.49646  MISS %:    97.5035   MPKI: 18.3863
LLC LOAD      ACCESS:      38477  HIT:          0  MISS:      38477  HIT %:          0  MISS %:        100   MPKI: 0.76954
LLC RFO       ACCESS:      23527  HIT:          0  MISS:      23527  HIT %:          0  MISS %:        100   MPKI: 0.47054
LLC PREFETCH  ACCESS:     855544  HIT:          0  MISS:     855544  HIT %:          0  MISS %:        100   MPKI: 17.1109
AGUS PREFETCH L1 MISS: 0
LLC WRITEBACK ACCESS:      23524  HIT:      23524  MISS:          0  HIT %:        100  MISS %:          0   MPKI: 0
LLC LOAD TRANSLATION ACCESS:       1733  HIT:          2  MISS:       1731  HIT %:   0.115407  MISS %:    99.8846   MPKI: 0.03462
LLC TRANSLATION FROM L1D PREFETCHER ACCESS:         49  HIT:         12  MISS:         37  HIT %:    24.4898  MISS %:    75.5102   MPKI: 0.00074
LLC PREFETCH  REQUESTED:          0  ISSUED:          0  USEFUL:         10  USELESS:     856208
LLC USEFUL LOAD PREFETCHES:         10 PREFETCH ISSUED TO LOWER LEVEL:     855544  ACCURACY: 0.00116885
LLC TIMELY PREFETCHES:         10 LATE PREFETCHES: 0 DROPPED PREFETCHES: 0
LLC PREFETCHES SAME FILL-ORIGIN LEVEL: 0 DIFFERENT FILL-ORIGIN LEVEL: 0
LLC AVERAGE MISS LATENCY: 133.64 cycles
LLC RQ	ACCESS:      63786	FORWARD:          0	MERGED:          0	TO_CACHE:      63786
LLC WQ	ACCESS:      23524	FORWARD:          0	MERGED:          0	TO_CACHE:      23524
LLC PQ	ACCESS:     855544	FORWARD:          0	MERGED:          0	TO_CACHE:     855544

LLC Dense regions hint to LLC: 0

RAW hits: 1663561
Loads Generated: 29313331
Loads sent to L1D: 27649770
Stores Generated: 3743682
Stores sent to L1D: 3743681
Major fault: 0 Minor fault: 27369
Allocated PAGES: 27369

stream: 
stream:times selected: 10170203
stream:pref_reqs: 57365945
stream:pref_reqs_filtered_out: 5785109
stream:pref_filled: 1780230
stream:pref_useful: 1779702
stream:pref_late: 10888
stream:misses: 266
stream:misses_by_poll: 0

CS: 
CS:times selected: 8565238
CS:pref_reqs: 25391794
CS:pref_reqs_filtered_out: 24004529
CS:pref_filled: 12154
CS:pref_useful: 12154
CS:pref_late: 279
CS:misses: 40879
CS:misses_by_poll: 45

CPLX: 
CPLX:times selected: 1604814
CPLX:pref_reqs: 4174300
CPLX:pref_reqs_filtered_out: 2256993
CPLX:pref_filled: 19307
CPLX:pref_useful: 15490
CPLX:pref_late: 119
CPLX:misses: 12967
CPLX:misses_by_poll: 34

ISB: 
ISB:total access:39413642
ISB:times selected:805977
ISB:canary counter:0
ISB:pref_reqs: 411014
ISB:pref_reqs_filtered_out: 210768
ISB:pref_filled: 3323
ISB:pref_useful: 705
ISB:pref_late: 0
ISB:misses: 7611
ISB:misses_by_poll: 0
ISB:Stream end: 452680
ISB:No Prediction: 38607665 97.9551
ISB:No translation: 343628116
ISB:Predictions: 131877 0.334597

NL_L1: 
NL:times selected: 2239
NL:pref_reqs: 2239
NL:pref_reqs_filtered_out: 240
NL:pref_filled: 254
NL:pref_useful: 254
NL:pref_late: 16
NL:misses: 41
NL:misses_by_poll: 0

Coverage: 94.6937
total selections: 21148471
total_filled: 893700
total_useful: 890830
total_late: 11379
total_polluted: 79
total_misses_after_warmup: 59006
conflicts: 797974

test: 0
ISB Prefetcher final stats
Prefetcher final stats
Training Unit Size: 31
Addr table size: 70936 70937
Triggers: 39413642
Structural address exists: 805977 2.04492
No Prediction: 38607665 97.9551
Prefetches issued: 131877 0.334597
Stream end: 452680
No translation: 343628116
%Stream divergence: 1186 0.00300911
Stream divergence -- new stream: 0
A: 0
B: 0
C: 10170209
D: 10170209
E: 10170209
F: 0
G: 0

DRAM Statistics
 CHANNEL 0
 RQ ROW_BUFFER_HIT:     608873  ROW_BUFFER_MISS:     310443
 DBUS_CONGESTED:        543
 WQ ROW_BUFFER_HIT:       6732  ROW_BUFFER_MISS:      16799  FULL:          0

 AVG_CONGESTED_CYCLE: 4
 All warmup complete: 2
Channel 0 Bank busy for read cycles: 0
Channel 0 Bank busy for write cycles: 0
Channel 0
Rank 0
0banks busy for read cycles: 14657846
0banks busy for write cycles: 4411
1banks busy for read cycles: 11474827
1banks busy for write cycles: 357502
2banks busy for read cycles: 7743031
2banks busy for write cycles: 248493
3banks busy for read cycles: 5420615
3banks busy for write cycles: 256866
4banks busy for read cycles: 3373135
4banks busy for write cycles: 183850
5banks busy for read cycles: 1910023
5banks busy for write cycles: 147996
6banks busy for read cycles: 953779
6banks busy for write cycles: 132060
7banks busy for read cycles: 560363
7banks busy for write cycles: 117516
8banks busy for read cycles: 138324
8banks busy for write cycles: 171314

CPU 0 Branch Prediction Accuracy: 83.7552% MPKI: 4.52892 Average ROB Occupancy at Mispredict: 57.265
Branch types
NOT_BRANCH: 48605768 97.2115%
BRANCH_DIRECT_JUMP: 188214 0.376428%
BRANCH_INDIRECT: 0 0%
BRANCH_CONDITIONAL: 1205750 2.4115%
BRANCH_DIRECT_CALL: 0 0%
BRANCH_INDIRECT_CALL: 0 0%
BRANCH_RETURN: 0 0%
BRANCH_OTHER: 0 0%

DRAM PAGES: 1048576
Allocated PAGES: 27369
