
*** ChampSim Multicore Out-of-Order Simulator ***

Warmup Instructions: 50000000
Simulation Instructions: 50000000
Number of CPUs: 1
LLC sets: 2048
LLC ways: 16
Off-chip DRAM Size: 4096 MB Channels: 1 Width: 64-bit Data Rate: 6400 MT/s
CPU 0 runs ./traces/SPEC-CPU2017/410.bwaves-1963B.champsimtrace.xz
.xz
CPU 0 Bimodal branch predictor
BTB has LRU replacement policy
ITLB has LRU replacement policy
DTLB has LRU replacement policy
STLB has LRU replacement policy
L1I has LRU replacement policy
L1D has LRU replacement policy
L2C has LRU replacement policy
LLC has LRU replacement policy
Heartbeat CPU 0 instructions: 10000000 cycles: 4191304 heartbeat IPC: 2.38589 cumulative IPC: 2.38589 (Simulation time: 0 hr 18 min 40 sec) 
Heartbeat CPU 0 instructions: 20000000 cycles: 8382361 heartbeat IPC: 2.38603 cumulative IPC: 2.38596 (Simulation time: 0 hr 38 min 29 sec) 
Heartbeat CPU 0 instructions: 30000001 cycles: 12573841 heartbeat IPC: 2.38579 cumulative IPC: 2.38591 (Simulation time: 0 hr 56 min 59 sec) 
Heartbeat CPU 0 instructions: 40000000 cycles: 16764893 heartbeat IPC: 2.38604 cumulative IPC: 2.38594 (Simulation time: 1 hr 9 min 5 sec) 
Heartbeat CPU 0 instructions: 50000002 cycles: 20956389 heartbeat IPC: 2.38578 cumulative IPC: 2.38591 (Simulation time: 1 hr 17 min 21 sec) 

Warmup complete CPU 0 instructions: 50000002 cycles: 20956389 (Simulation time: 1 hr 17 min 21 sec) 

Heartbeat CPU 0 instructions: 60000000 cycles: 30550102 heartbeat IPC: 1.04235 cumulative IPC: 1.04235 (Simulation time: 1 hr 18 min 33 sec) 
Heartbeat CPU 0 instructions: 70000002 cycles: 40145762 heartbeat IPC: 1.04214 cumulative IPC: 1.04224 (Simulation time: 1 hr 19 min 43 sec) 
Heartbeat CPU 0 instructions: 80000000 cycles: 49728023 heartbeat IPC: 1.04359 cumulative IPC: 1.04269 (Simulation time: 1 hr 20 min 46 sec) 
Heartbeat CPU 0 instructions: 90000001 cycles: 59335387 heartbeat IPC: 1.04087 cumulative IPC: 1.04224 (Simulation time: 1 hr 21 min 36 sec) 
Heartbeat CPU 0 instructions: 100000000 cycles: 68946200 heartbeat IPC: 1.04049 cumulative IPC: 1.04189 (Simulation time: 1 hr 22 min 28 sec) 
Finished CPU 0 instructions: 50000003 cycles: 47989828 cumulative IPC: 1.04189 (Simulation time: 1 hr 22 min 28 sec) 

ChampSim completed all CPUs

Region of Interest Statistics

CPU 0 cumulative IPC: 1.04189 instructions: 50000003 cycles: 47989828
ITLB TOTAL     ACCESS:    6598658  HIT:    6598658  MISS:          0  HIT %:        100  MISS %:          0   MPKI: 0
ITLB LOAD TRANSLATION ACCESS:    6598658  HIT:    6598658  MISS:          0  HIT %:        100  MISS %:          0   MPKI: 0
ITLB PREFETCH  REQUESTED:          0  ISSUED:          0  USEFUL:          0  USELESS:          0
ITLB USEFUL LOAD PREFETCHES:          0 PREFETCH ISSUED TO LOWER LEVEL:          0  ACCURACY: -nan
ITLB TIMELY PREFETCHES:          0 LATE PREFETCHES: 0 DROPPED PREFETCHES: 0
ITLB PREFETCHES SAME FILL-ORIGIN LEVEL: 0 DIFFERENT FILL-ORIGIN LEVEL: 0
ITLB AVERAGE MISS LATENCY: -nan cycles
ITLB RQ	ACCESS:    8369846	FORWARD:          0	MERGED:    1771189	TO_CACHE:    6598657

DTLB TOTAL     ACCESS:   19241132  HIT:   19193687  MISS:      47445  HIT %:    99.7534  MISS %:   0.246581   MPKI: 0.9489
DTLB LOAD TRANSLATION ACCESS:   19241132  HIT:   19193687  MISS:      47445  HIT %:    99.7534  MISS %:   0.246581   MPKI: 0.9489
DTLB PREFETCH  REQUESTED:          0  ISSUED:          0  USEFUL:          0  USELESS:          0
DTLB USEFUL LOAD PREFETCHES:          0 PREFETCH ISSUED TO LOWER LEVEL:          0  ACCURACY: -nan
DTLB TIMELY PREFETCHES:          0 LATE PREFETCHES: 0 DROPPED PREFETCHES: 0
DTLB PREFETCHES SAME FILL-ORIGIN LEVEL: 0 DIFFERENT FILL-ORIGIN LEVEL: 0
DTLB AVERAGE MISS LATENCY: 148.707 cycles
DTLB RQ	ACCESS:   25023955	FORWARD:          0	MERGED:    5778594	TO_CACHE:   19245361

STLB TOTAL     ACCESS:    2743728  HIT:    2729937  MISS:      13791  HIT %:    99.4974  MISS %:   0.502637   MPKI: 0.27582
STLB LOAD TRANSLATION ACCESS:      47445  HIT:      33654  MISS:      13791  HIT %:    70.9327  MISS %:    29.0673   MPKI: 0.27582
STLB TRANSLATION FROM L1D PREFETCHER ACCESS:    2696283  HIT:    2696283  MISS:          0  HIT %:        100  MISS %:          0   MPKI: 0
STLB PREFETCH  REQUESTED:          0  ISSUED:          0  USEFUL:          0  USELESS:          0
STLB USEFUL LOAD PREFETCHES:          0 PREFETCH ISSUED TO LOWER LEVEL:          0  ACCURACY: -nan
STLB TIMELY PREFETCHES:          0 LATE PREFETCHES: 0 DROPPED PREFETCHES: 0
STLB PREFETCHES SAME FILL-ORIGIN LEVEL: 0 DIFFERENT FILL-ORIGIN LEVEL: 0
STLB AVERAGE MISS LATENCY: 458.758 cycles
STLB RQ	ACCESS:    9761718	FORWARD:          0	MERGED:    7017991	TO_CACHE:    2743727

STLB Hit, L1D data hit: 0
STLB Hit, L2C data hit: 0
STLB Hit, LLC data hit: 0
STLB Hit, LLC data miss: 0
STLB STLB hints to L2: 0
L1D TOTAL     ACCESS:   34480754  HIT:   33511365  MISS:     969389  HIT %:    97.1886  MISS %:    2.81139   MPKI: 19.3878
L1D LOAD      ACCESS:   21270442  HIT:   21219632  MISS:      50810  HIT %:    99.7611  MISS %:   0.238876   MPKI: 1.0162
L1D RFO       ACCESS:    3722785  HIT:    3699258  MISS:      23527  HIT %:     99.368  MISS %:   0.631973   MPKI: 0.47054
L1D PREFETCH  ACCESS:    9487527  HIT:    8592475  MISS:     895052  HIT %:     90.566  MISS %:    9.43399   MPKI: 17.901
AGUS PREFETCH L1 MISS: 0
L1D PREFETCH  REQUESTED:   40588881  ISSUED:   19449564  USEFUL:     890141  USELESS:       4912
L1D USEFUL LOAD PREFETCHES:     890141 PREFETCH ISSUED TO LOWER LEVEL:     905068  ACCURACY: 98.3507
L1D TIMELY PREFETCHES:     890141 LATE PREFETCHES: 10016 DROPPED PREFETCHES: 0
L1D PREFETCHES SAME FILL-ORIGIN LEVEL: 905068 DIFFERENT FILL-ORIGIN LEVEL: 0
L1D AVERAGE MISS LATENCY: 173.166 cycles
L1D RQ	ACCESS:   27647752	FORWARD:          0	MERGED:    6109633	TO_CACHE:   21280322
L1D WQ	ACCESS:    3743681	FORWARD:     257797	MERGED:         48	TO_CACHE:    3743633
L1D PQ	ACCESS:    9735291	FORWARD:          0	MERGED:      21018	TO_CACHE:    9714273

L1D UNIQUE REGIONS ACCESSED: 0
L1D REGIONS CONFLICTS: 0
L1D Cross Page Prefetch Requests: 0
L1D Same Page Prefetch Requests: 22473921
L1D ROI Sum of L1D PQ occupancy: 141745300
L1D PREFETCHES PUSHED FROM L2C: 0
L1I TOTAL     ACCESS:    8369845  HIT:    8369845  MISS:          0  HIT %:        100  MISS %:          0   MPKI: 0
L1I LOAD      ACCESS:    8369845  HIT:    8369845  MISS:          0  HIT %:        100  MISS %:          0   MPKI: 0
L1I PREFETCH  REQUESTED:          0  ISSUED:          0  USEFUL:          0  USELESS:          0
L1I USEFUL LOAD PREFETCHES:          0 PREFETCH ISSUED TO LOWER LEVEL:          0  ACCURACY: -nan
L1I TIMELY PREFETCHES:          0 LATE PREFETCHES: 0 DROPPED PREFETCHES: 0
L1I PREFETCHES SAME FILL-ORIGIN LEVEL: 0 DIFFERENT FILL-ORIGIN LEVEL: 0
L1I AVERAGE MISS LATENCY: -nan cycles
L1I RQ	ACCESS:   10301888	FORWARD:          0	MERGED:    1932042	TO_CACHE:    8369846

BTB TOTAL     ACCESS:    1355683  HIT:    1355675  MISS:          8  HIT %:    99.9994  MISS %: 0.000590108   MPKI: 0.00016
BTB BRANCH_DIRECT_JUMP	ACCESS:     188214  HIT:     188210  MISS:          4
BTB BRANCH_INDIRECT	ACCESS:          0  HIT:          0  MISS:          0
BTB BRANCH_CONDITIONAL	ACCESS:    1167469  HIT:    1167465  MISS:          4
BTB BRANCH_DIRECT_CALL	ACCESS:          0  HIT:          0  MISS:          0
BTB BRANCH_INDIRECT_CALL	ACCESS:          0  HIT:          0  MISS:          0
BTB BRANCH_RETURN	ACCESS:          0  HIT:          0  MISS:          0
BTB BRANCH_OTHER ACCESS:          0  HIT:          0  MISS:          0

L2C TOTAL     ACCESS:    1006721  HIT:      87358  MISS:     919363  HIT %:    8.67748  MISS %:    91.3225   MPKI: 18.3873
L2C LOAD      ACCESS:      40794  HIT:        708  MISS:      40086  HIT %:    1.73555  MISS %:    98.2645   MPKI: 0.80172
L2C DATA LOAD MPKI: 0.80172
L2C INSTRUCTION LOAD MPKI: 0
L2C RFO       ACCESS:      23527  HIT:          0  MISS:      23527  HIT %:          0  MISS %:        100   MPKI: 0.47054
L2C PREFETCH  ACCESS:     905068  HIT:      51127  MISS:     853941  HIT %:    5.64897  MISS %:     94.351   MPKI: 17.0788
AGUS PREFETCH L1 MISS: 0
L2C DATA PREFETCH MPKI: 17.0788
L2C INSTRUCTION PREFETCH MPKI: 0
L2C WRITEBACK ACCESS:      23539  HIT:      23539  MISS:          0  HIT %:        100  MISS %:          0   MPKI: 0
L2C LOAD TRANSLATION ACCESS:      13793  HIT:      11984  MISS:       1809  HIT %:    86.8847  MISS %:    13.1153   MPKI: 0.03618
L2C PREFETCH  REQUESTED:          0  ISSUED:          0  USEFUL:         77  USELESS:     854018
L2C USEFUL LOAD PREFETCHES:         77 PREFETCH ISSUED TO LOWER LEVEL:     853941  ACCURACY: 0.00901702
L2C TIMELY PREFETCHES:         77 LATE PREFETCHES: 0 DROPPED PREFETCHES: 0
L2C PREFETCHES SAME FILL-ORIGIN LEVEL: 0 DIFFERENT FILL-ORIGIN LEVEL: 0
L2C AVERAGE MISS LATENCY: 162.49 cycles
L2C RQ	ACCESS:      78114	FORWARD:          0	MERGED:          0	TO_CACHE:      78114
L2C WQ	ACCESS:      23539	FORWARD:          0	MERGED:          0	TO_CACHE:      23539
L2C PQ	ACCESS:     905068	FORWARD:          0	MERGED:          0	TO_CACHE:     905068

L2C Instructions Evicting Data 0
L2C Translations Evicting Data 1809
L2C Data Evicting Data 915742
L2C Instructions Evicting Instructions 0
L2C Translations Evicting Instructions 0
L2C Data Evicting Instructions 0
L2C Instructions Evicting Translations 0
L2C Translations Evicting Translations 0
L2C Data Evicting Translations 1812
L2C Dense regions hint from L2: 0
PSCL5 TOTAL     ACCESS:      13791  HIT:      13791  MISS:          0  HIT %:        100  MISS %:          0   MPKI: 0
PSCL5 LOAD TRANSLATION ACCESS:      13791  HIT:      13791  MISS:          0  HIT %:        100  MISS %:          0   MPKI: 0
PSCL5 PREFETCH  REQUESTED:          0  ISSUED:          0  USEFUL:          0  USELESS:          0
PSCL5 USEFUL LOAD PREFETCHES:          0 PREFETCH ISSUED TO LOWER LEVEL:          0  ACCURACY: -nan
PSCL5 TIMELY PREFETCHES:          0 LATE PREFETCHES: 0 DROPPED PREFETCHES: 0
PSCL5 PREFETCHES SAME FILL-ORIGIN LEVEL: 0 DIFFERENT FILL-ORIGIN LEVEL: 0

PSCL4 TOTAL     ACCESS:      13791  HIT:      13791  MISS:          0  HIT %:        100  MISS %:          0   MPKI: 0
PSCL4 LOAD TRANSLATION ACCESS:      13791  HIT:      13791  MISS:          0  HIT %:        100  MISS %:          0   MPKI: 0
PSCL4 PREFETCH  REQUESTED:          0  ISSUED:          0  USEFUL:          0  USELESS:          0
PSCL4 USEFUL LOAD PREFETCHES:          0 PREFETCH ISSUED TO LOWER LEVEL:          0  ACCURACY: -nan
PSCL4 TIMELY PREFETCHES:          0 LATE PREFETCHES: 0 DROPPED PREFETCHES: 0
PSCL4 PREFETCHES SAME FILL-ORIGIN LEVEL: 0 DIFFERENT FILL-ORIGIN LEVEL: 0

PSCL3 TOTAL     ACCESS:      13791  HIT:      13791  MISS:          0  HIT %:        100  MISS %:          0   MPKI: 0
PSCL3 LOAD TRANSLATION ACCESS:      13791  HIT:      13791  MISS:          0  HIT %:        100  MISS %:          0   MPKI: 0
PSCL3 PREFETCH  REQUESTED:          0  ISSUED:          0  USEFUL:          0  USELESS:          0
PSCL3 USEFUL LOAD PREFETCHES:          0 PREFETCH ISSUED TO LOWER LEVEL:          0  ACCURACY: -nan
PSCL3 TIMELY PREFETCHES:          0 LATE PREFETCHES: 0 DROPPED PREFETCHES: 0
PSCL3 PREFETCHES SAME FILL-ORIGIN LEVEL: 0 DIFFERENT FILL-ORIGIN LEVEL: 0

PSCL2 TOTAL     ACCESS:      13791  HIT:      13763  MISS:         28  HIT %:     99.797  MISS %:   0.203031   MPKI: 0.00056
PSCL2 LOAD TRANSLATION ACCESS:      13791  HIT:      13763  MISS:         28  HIT %:     99.797  MISS %:   0.203031   MPKI: 0.00056
PSCL2 PREFETCH  REQUESTED:          0  ISSUED:          0  USEFUL:          0  USELESS:          0
PSCL2 USEFUL LOAD PREFETCHES:          0 PREFETCH ISSUED TO LOWER LEVEL:          0  ACCURACY: -nan
PSCL2 TIMELY PREFETCHES:          0 LATE PREFETCHES: 0 DROPPED PREFETCHES: 0
PSCL2 PREFETCHES SAME FILL-ORIGIN LEVEL: 0 DIFFERENT FILL-ORIGIN LEVEL: 0

LLC TOTAL     ACCESS:     942888  HIT:      23537  MISS:     919351  HIT %:    2.49627  MISS %:    97.5037   MPKI: 18.387
LLC LOAD      ACCESS:      40086  HIT:          0  MISS:      40086  HIT %:          0  MISS %:        100   MPKI: 0.80172
LLC RFO       ACCESS:      23527  HIT:          0  MISS:      23527  HIT %:          0  MISS %:        100   MPKI: 0.47054
LLC PREFETCH  ACCESS:     853941  HIT:          0  MISS:     853941  HIT %:          0  MISS %:        100   MPKI: 17.0788
AGUS PREFETCH L1 MISS: 0
LLC WRITEBACK ACCESS:      23525  HIT:      23525  MISS:          0  HIT %:        100  MISS %:          0   MPKI: 0
LLC LOAD TRANSLATION ACCESS:       1809  HIT:         12  MISS:       1797  HIT %:    0.66335  MISS %:    99.3367   MPKI: 0.03594
LLC PREFETCH  REQUESTED:          0  ISSUED:          0  USEFUL:          0  USELESS:     854545
LLC USEFUL LOAD PREFETCHES:          0 PREFETCH ISSUED TO LOWER LEVEL:     853941  ACCURACY: 0
LLC TIMELY PREFETCHES:          0 LATE PREFETCHES: 0 DROPPED PREFETCHES: 0
LLC PREFETCHES SAME FILL-ORIGIN LEVEL: 0 DIFFERENT FILL-ORIGIN LEVEL: 0
LLC AVERAGE MISS LATENCY: 131.377 cycles
LLC RQ	ACCESS:      65422	FORWARD:          0	MERGED:          0	TO_CACHE:      65422
LLC WQ	ACCESS:      23525	FORWARD:          0	MERGED:          0	TO_CACHE:      23525
LLC PQ	ACCESS:     853941	FORWARD:          0	MERGED:          0	TO_CACHE:     853941

LLC Dense regions hint to LLC: 0

RAW hits: 1665579
Loads Generated: 29313331
Loads sent to L1D: 27647752
Stores Generated: 3743682
Stores sent to L1D: 3743681
Major fault: 0 Minor fault: 27369
Allocated PAGES: 27369

stream: 
stream:times selected: 10169734
stream:pref_filled: 1755338
stream:pref_useful: 1754750
stream:pref_late: 10658
stream:misses: 6527
stream:misses_by_poll: 0

CS: 
CS:times selected: 5832113
CS:pref_filled: 7318
CS:pref_useful: 6981
CS:pref_late: 145
CS:misses: 26745
CS:misses_by_poll: 16

CPLX: 
CPLX:times selected: 4337451
CPLX:pref_filled: 54889
CPLX:pref_useful: 45555
CPLX:pref_late: 108
CPLX:misses: 27409
CPLX:misses_by_poll: 283

NL_L1: 
NL:times selected: 8077
NL:pref_filled: 653
NL:pref_useful: 653
NL:pref_late: 63
NL:misses: 287
NL:misses_by_poll: 0

total selections: 20347375
total_filled: 895052
total_useful: 890141
total_late: 11040
total_polluted: 299
total_misses_after_warmup: 60704
conflicts: 798044

test: 1724135

DRAM Statistics
 CHANNEL 0
 RQ ROW_BUFFER_HIT:     609246  ROW_BUFFER_MISS:     310105
 DBUS_CONGESTED:        538
 WQ ROW_BUFFER_HIT:       6780  ROW_BUFFER_MISS:      16748  FULL:          0

 AVG_CONGESTED_CYCLE: 4
 All warmup complete: 2
Channel 0 Bank busy for read cycles: 0
Channel 0 Bank busy for write cycles: 0
Channel 0
Rank 0
0banks busy for read cycles: 14955530
0banks busy for write cycles: 4367
1banks busy for read cycles: 11300769
1banks busy for write cycles: 357067
2banks busy for read cycles: 7779790
2banks busy for write cycles: 264837
3banks busy for read cycles: 5373542
3banks busy for write cycles: 240392
4banks busy for read cycles: 3350973
4banks busy for write cycles: 190696
5banks busy for read cycles: 1925344
5banks busy for write cycles: 152854
6banks busy for read cycles: 959778
6banks busy for write cycles: 127381
7banks busy for read cycles: 565577
7banks busy for write cycles: 115915
8banks busy for read cycles: 156989
8banks busy for write cycles: 168028

CPU 0 Branch Prediction Accuracy: 83.7552% MPKI: 4.52892 Average ROB Occupancy at Mispredict: 57.7235
Branch types
NOT_BRANCH: 48605768 97.2115%
BRANCH_DIRECT_JUMP: 188214 0.376428%
BRANCH_INDIRECT: 0 0%
BRANCH_CONDITIONAL: 1205750 2.4115%
BRANCH_DIRECT_CALL: 0 0%
BRANCH_INDIRECT_CALL: 0 0%
BRANCH_RETURN: 0 0%
BRANCH_OTHER: 0 0%

DRAM PAGES: 1048576
Allocated PAGES: 27369
