
*** ChampSim Multicore Out-of-Order Simulator ***

Warmup Instructions: 50000000
Simulation Instructions: 50000000
Number of CPUs: 1
LLC sets: 2048
LLC ways: 16
Off-chip DRAM Size: 4096 MB Channels: 1 Width: 64-bit Data Rate: 6400 MT/s
CPU 0 runs ./traces/SPEC-CPU2017/410.bwaves-1963B.champsimtrace.xz
.xz
CPU 0 Bimodal branch predictor
BTB has LRU replacement policy
ITLB has LRU replacement policy
DTLB has LRU replacement policy
STLB has LRU replacement policy
L1I has LRU replacement policy
L1D has LRU replacement policy
Ideal ISB Prefetching
L2C has LRU replacement policy
LLC has LRU replacement policy
Heartbeat CPU 0 instructions: 10000000 cycles: 4193823 heartbeat IPC: 2.38446 cumulative IPC: 2.38446 (Simulation time: 0 hr 1 min 9 sec) 
Heartbeat CPU 0 instructions: 20000000 cycles: 8386922 heartbeat IPC: 2.38487 cumulative IPC: 2.38467 (Simulation time: 0 hr 2 min 31 sec) 
Heartbeat CPU 0 instructions: 30000001 cycles: 12580502 heartbeat IPC: 2.3846 cumulative IPC: 2.38464 (Simulation time: 0 hr 3 min 49 sec) 
Heartbeat CPU 0 instructions: 40000000 cycles: 16773675 heartbeat IPC: 2.38483 cumulative IPC: 2.38469 (Simulation time: 0 hr 5 min 7 sec) 
Heartbeat CPU 0 instructions: 50000002 cycles: 20967492 heartbeat IPC: 2.38446 cumulative IPC: 2.38464 (Simulation time: 0 hr 6 min 29 sec) 

Warmup complete CPU 0 instructions: 50000002 cycles: 20967492 (Simulation time: 0 hr 6 min 29 sec) 

Heartbeat CPU 0 instructions: 60000000 cycles: 36904844 heartbeat IPC: 0.627457 cumulative IPC: 0.627457 (Simulation time: 0 hr 8 min 2 sec) 
Heartbeat CPU 0 instructions: 70000002 cycles: 52876925 heartbeat IPC: 0.626093 cumulative IPC: 0.626774 (Simulation time: 0 hr 9 min 32 sec) 
Heartbeat CPU 0 instructions: 80000000 cycles: 68836734 heartbeat IPC: 0.626574 cumulative IPC: 0.626707 (Simulation time: 0 hr 10 min 55 sec) 
Heartbeat CPU 0 instructions: 90000001 cycles: 84795902 heartbeat IPC: 0.626599 cumulative IPC: 0.62668 (Simulation time: 0 hr 11 min 58 sec) 
Heartbeat CPU 0 instructions: 100000000 cycles: 100818299 heartbeat IPC: 0.624126 cumulative IPC: 0.626168 (Simulation time: 0 hr 12 min 56 sec) 
Finished CPU 0 instructions: 50000003 cycles: 79850824 cumulative IPC: 0.626168 (Simulation time: 0 hr 12 min 56 sec) 

ChampSim completed all CPUs

Region of Interest Statistics

CPU 0 cumulative IPC: 0.626168 instructions: 50000003 cycles: 79850824
ITLB TOTAL     ACCESS:    6729294  HIT:    6729294  MISS:          0  HIT %:        100  MISS %:          0   MPKI: 0
ITLB LOAD TRANSLATION ACCESS:    6729294  HIT:    6729294  MISS:          0  HIT %:        100  MISS %:          0   MPKI: 0
ITLB PREFETCH  REQUESTED:          0  ISSUED:          0  USEFUL:          0  USELESS:          0
ITLB USEFUL LOAD PREFETCHES:          0 PREFETCH ISSUED TO LOWER LEVEL:          0  ACCURACY: -nan
ITLB TIMELY PREFETCHES:          0 LATE PREFETCHES: 0 DROPPED PREFETCHES: 0
ITLB PREFETCHES SAME FILL-ORIGIN LEVEL: 0 DIFFERENT FILL-ORIGIN LEVEL: 0
ITLB AVERAGE MISS LATENCY: -nan cycles
ITLB RQ	ACCESS:    8508935	FORWARD:          0	MERGED:    1779642	TO_CACHE:    6729293

DTLB TOTAL     ACCESS:   18922092  HIT:   18876483  MISS:      45609  HIT %:     99.759  MISS %:   0.241036   MPKI: 0.91218
DTLB LOAD TRANSLATION ACCESS:   18922092  HIT:   18876483  MISS:      45609  HIT %:     99.759  MISS %:   0.241036   MPKI: 0.91218
DTLB PREFETCH  REQUESTED:          0  ISSUED:          0  USEFUL:          0  USELESS:          0
DTLB USEFUL LOAD PREFETCHES:          0 PREFETCH ISSUED TO LOWER LEVEL:          0  ACCURACY: -nan
DTLB TIMELY PREFETCHES:          0 LATE PREFETCHES: 0 DROPPED PREFETCHES: 0
DTLB PREFETCHES SAME FILL-ORIGIN LEVEL: 0 DIFFERENT FILL-ORIGIN LEVEL: 0
DTLB AVERAGE MISS LATENCY: 150.1 cycles
DTLB RQ	ACCESS:   24522456	FORWARD:          0	MERGED:    5596123	TO_CACHE:   18926333

STLB TOTAL     ACCESS:      45609  HIT:      31645  MISS:      13964  HIT %:    69.3832  MISS %:    30.6168   MPKI: 0.27928
STLB LOAD TRANSLATION ACCESS:      45609  HIT:      31645  MISS:      13964  HIT %:    69.3832  MISS %:    30.6168   MPKI: 0.27928
STLB PREFETCH  REQUESTED:          0  ISSUED:          0  USEFUL:          0  USELESS:          0
STLB USEFUL LOAD PREFETCHES:          0 PREFETCH ISSUED TO LOWER LEVEL:          0  ACCURACY: -nan
STLB TIMELY PREFETCHES:          0 LATE PREFETCHES: 0 DROPPED PREFETCHES: 0
STLB PREFETCHES SAME FILL-ORIGIN LEVEL: 0 DIFFERENT FILL-ORIGIN LEVEL: 0
STLB AVERAGE MISS LATENCY: 439.175 cycles
STLB RQ	ACCESS:      45609	FORWARD:          0	MERGED:          0	TO_CACHE:      45609

STLB Hit, L1D data hit: 0
STLB Hit, L2C data hit: 0
STLB Hit, LLC data hit: 0
STLB Hit, LLC data miss: 0
STLB STLB hints to L2: 0
L1D TOTAL     ACCESS:   24222888  HIT:   23258238  MISS:     964650  HIT %:    96.0176  MISS %:    3.98239   MPKI: 19.293
L1D LOAD      ACCESS:   20490954  HIT:   19549831  MISS:     941123  HIT %:    95.4071  MISS %:    4.59287   MPKI: 18.8225
L1D RFO       ACCESS:    3731934  HIT:    3708407  MISS:      23527  HIT %:    99.3696  MISS %:   0.630424   MPKI: 0.47054
L1D PREFETCH  REQUESTED:          0  ISSUED:          0  USEFUL:          0  USELESS:          0
L1D USEFUL LOAD PREFETCHES:          0 PREFETCH ISSUED TO LOWER LEVEL:          0  ACCURACY: -nan
L1D TIMELY PREFETCHES:          0 LATE PREFETCHES: 0 DROPPED PREFETCHES: 0
L1D PREFETCHES SAME FILL-ORIGIN LEVEL: 0 DIFFERENT FILL-ORIGIN LEVEL: 0
L1D AVERAGE MISS LATENCY: 289.533 cycles
L1D RQ	ACCESS:   27329938	FORWARD:          0	MERGED:    6323321	TO_CACHE:   20778873
L1D WQ	ACCESS:    3743681	FORWARD:     227744	MERGED:         98	TO_CACHE:    3743583

L1D UNIQUE REGIONS ACCESSED: 0
L1D REGIONS CONFLICTS: 0
L1D Cross Page Prefetch Requests: 0
L1D Same Page Prefetch Requests: 0
L1D ROI Sum of L1D PQ occupancy: 0
L1D PREFETCHES PUSHED FROM L2C: 0
L1I TOTAL     ACCESS:    8508934  HIT:    8508934  MISS:          0  HIT %:        100  MISS %:          0   MPKI: 0
L1I LOAD      ACCESS:    8508934  HIT:    8508934  MISS:          0  HIT %:        100  MISS %:          0   MPKI: 0
L1I PREFETCH  REQUESTED:          0  ISSUED:          0  USEFUL:          0  USELESS:          0
L1I USEFUL LOAD PREFETCHES:          0 PREFETCH ISSUED TO LOWER LEVEL:          0  ACCURACY: -nan
L1I TIMELY PREFETCHES:          0 LATE PREFETCHES: 0 DROPPED PREFETCHES: 0
L1I PREFETCHES SAME FILL-ORIGIN LEVEL: 0 DIFFERENT FILL-ORIGIN LEVEL: 0
L1I AVERAGE MISS LATENCY: -nan cycles
L1I RQ	ACCESS:   10534393	FORWARD:          0	MERGED:    2025458	TO_CACHE:    8508935

BTB TOTAL     ACCESS:    1355683  HIT:    1355675  MISS:          8  HIT %:    99.9994  MISS %: 0.000590108   MPKI: 0.00016
BTB BRANCH_DIRECT_JUMP	ACCESS:     188214  HIT:     188210  MISS:          4
BTB BRANCH_INDIRECT	ACCESS:          0  HIT:          0  MISS:          0
BTB BRANCH_CONDITIONAL	ACCESS:    1167469  HIT:    1167465  MISS:          4
BTB BRANCH_DIRECT_CALL	ACCESS:          0  HIT:          0  MISS:          0
BTB BRANCH_INDIRECT_CALL	ACCESS:          0  HIT:          0  MISS:          0
BTB BRANCH_RETURN	ACCESS:          0  HIT:          0  MISS:          0
BTB BRANCH_OTHER ACCESS:          0  HIT:          0  MISS:          0

L2C TOTAL     ACCESS:    1044010  HIT:     124653  MISS:     919357  HIT %:    11.9398  MISS %:    88.0602   MPKI: 18.3871
L2C LOAD      ACCESS:     941123  HIT:      88896  MISS:     852227  HIT %:    9.44574  MISS %:    90.5543   MPKI: 17.0445
L2C DATA LOAD MPKI: 17.0445
L2C INSTRUCTION LOAD MPKI: 0
L2C RFO       ACCESS:      23527  HIT:          0  MISS:      23527  HIT %:          0  MISS %:        100   MPKI: 0.47054
L2C PREFETCH  ACCESS:      41858  HIT:         63  MISS:      41795  HIT %:   0.150509  MISS %:    99.8495   MPKI: 0.8359
AGUS PREFETCH L1 MISS: 0
L2C DATA PREFETCH MPKI: 0.8359
L2C INSTRUCTION PREFETCH MPKI: 0
L2C WRITEBACK ACCESS:      23536  HIT:      23536  MISS:          0  HIT %:        100  MISS %:          0   MPKI: 0
L2C LOAD TRANSLATION ACCESS:      13966  HIT:      12158  MISS:       1808  HIT %:    87.0543  MISS %:    12.9457   MPKI: 0.03616
L2C PREFETCH  REQUESTED:      41898  ISSUED:      41898  USEFUL:      41799  USELESS:          0
L2C USEFUL LOAD PREFETCHES:      41799 PREFETCH ISSUED TO LOWER LEVEL:      41795  ACCURACY: 100.01
L2C TIMELY PREFETCHES:      41799 LATE PREFETCHES: 0 DROPPED PREFETCHES: 0
L2C PREFETCHES SAME FILL-ORIGIN LEVEL: 41795 DIFFERENT FILL-ORIGIN LEVEL: 0
L2C AVERAGE MISS LATENCY: 297.646 cycles
L2C RQ	ACCESS:     978616	FORWARD:          0	MERGED:          0	TO_CACHE:     978616
L2C WQ	ACCESS:      23536	FORWARD:          0	MERGED:          0	TO_CACHE:      23536
L2C PQ	ACCESS:      41898	FORWARD:          0	MERGED:         22	TO_CACHE:      41876

L2C Instructions Evicting Data 0
L2C Translations Evicting Data 1808
L2C Data Evicting Data 915739
L2C Instructions Evicting Instructions 0
L2C Translations Evicting Instructions 0
L2C Data Evicting Instructions 0
L2C Instructions Evicting Translations 0
L2C Translations Evicting Translations 0
L2C Data Evicting Translations 1810
L2C Dense regions hint from L2: 0
PSCL5 TOTAL     ACCESS:      13964  HIT:      13964  MISS:          0  HIT %:        100  MISS %:          0   MPKI: 0
PSCL5 LOAD TRANSLATION ACCESS:      13964  HIT:      13964  MISS:          0  HIT %:        100  MISS %:          0   MPKI: 0
PSCL5 PREFETCH  REQUESTED:          0  ISSUED:          0  USEFUL:          0  USELESS:          0
PSCL5 USEFUL LOAD PREFETCHES:          0 PREFETCH ISSUED TO LOWER LEVEL:          0  ACCURACY: -nan
PSCL5 TIMELY PREFETCHES:          0 LATE PREFETCHES: 0 DROPPED PREFETCHES: 0
PSCL5 PREFETCHES SAME FILL-ORIGIN LEVEL: 0 DIFFERENT FILL-ORIGIN LEVEL: 0

PSCL4 TOTAL     ACCESS:      13964  HIT:      13964  MISS:          0  HIT %:        100  MISS %:          0   MPKI: 0
PSCL4 LOAD TRANSLATION ACCESS:      13964  HIT:      13964  MISS:          0  HIT %:        100  MISS %:          0   MPKI: 0
PSCL4 PREFETCH  REQUESTED:          0  ISSUED:          0  USEFUL:          0  USELESS:          0
PSCL4 USEFUL LOAD PREFETCHES:          0 PREFETCH ISSUED TO LOWER LEVEL:          0  ACCURACY: -nan
PSCL4 TIMELY PREFETCHES:          0 LATE PREFETCHES: 0 DROPPED PREFETCHES: 0
PSCL4 PREFETCHES SAME FILL-ORIGIN LEVEL: 0 DIFFERENT FILL-ORIGIN LEVEL: 0

PSCL3 TOTAL     ACCESS:      13964  HIT:      13964  MISS:          0  HIT %:        100  MISS %:          0   MPKI: 0
PSCL3 LOAD TRANSLATION ACCESS:      13964  HIT:      13964  MISS:          0  HIT %:        100  MISS %:          0   MPKI: 0
PSCL3 PREFETCH  REQUESTED:          0  ISSUED:          0  USEFUL:          0  USELESS:          0
PSCL3 USEFUL LOAD PREFETCHES:          0 PREFETCH ISSUED TO LOWER LEVEL:          0  ACCURACY: -nan
PSCL3 TIMELY PREFETCHES:          0 LATE PREFETCHES: 0 DROPPED PREFETCHES: 0
PSCL3 PREFETCHES SAME FILL-ORIGIN LEVEL: 0 DIFFERENT FILL-ORIGIN LEVEL: 0

PSCL2 TOTAL     ACCESS:      13964  HIT:      13936  MISS:         28  HIT %:    99.7995  MISS %:   0.200516   MPKI: 0.00056
PSCL2 LOAD TRANSLATION ACCESS:      13964  HIT:      13936  MISS:         28  HIT %:    99.7995  MISS %:   0.200516   MPKI: 0.00056
PSCL2 PREFETCH  REQUESTED:          0  ISSUED:          0  USEFUL:          0  USELESS:          0
PSCL2 USEFUL LOAD PREFETCHES:          0 PREFETCH ISSUED TO LOWER LEVEL:          0  ACCURACY: -nan
PSCL2 TIMELY PREFETCHES:          0 LATE PREFETCHES: 0 DROPPED PREFETCHES: 0
PSCL2 PREFETCHES SAME FILL-ORIGIN LEVEL: 0 DIFFERENT FILL-ORIGIN LEVEL: 0

LLC TOTAL     ACCESS:     942876  HIT:      23519  MISS:     919357  HIT %:    2.49439  MISS %:    97.5056   MPKI: 18.3871
LLC LOAD      ACCESS:     852227  HIT:          0  MISS:     852227  HIT %:          0  MISS %:        100   MPKI: 17.0445
LLC RFO       ACCESS:      23527  HIT:          0  MISS:      23527  HIT %:          0  MISS %:        100   MPKI: 0.47054
LLC PREFETCH  ACCESS:      41795  HIT:          0  MISS:      41795  HIT %:          0  MISS %:        100   MPKI: 0.8359
AGUS PREFETCH L1 MISS: 0
LLC WRITEBACK ACCESS:      23519  HIT:      23519  MISS:          0  HIT %:        100  MISS %:          0   MPKI: 0
LLC LOAD TRANSLATION ACCESS:       1808  HIT:          0  MISS:       1808  HIT %:          0  MISS %:        100   MPKI: 0.03616
LLC PREFETCH  REQUESTED:          0  ISSUED:          0  USEFUL:          0  USELESS:      41772
LLC USEFUL LOAD PREFETCHES:          0 PREFETCH ISSUED TO LOWER LEVEL:      41795  ACCURACY: 0
LLC TIMELY PREFETCHES:          0 LATE PREFETCHES: 0 DROPPED PREFETCHES: 0
LLC PREFETCHES SAME FILL-ORIGIN LEVEL: 0 DIFFERENT FILL-ORIGIN LEVEL: 0
LLC AVERAGE MISS LATENCY: 266.96 cycles
LLC RQ	ACCESS:     877562	FORWARD:          0	MERGED:          0	TO_CACHE:     877562
LLC WQ	ACCESS:      23519	FORWARD:          0	MERGED:          0	TO_CACHE:      23519
LLC PQ	ACCESS:      41795	FORWARD:          0	MERGED:          0	TO_CACHE:      41795

LLC Dense regions hint to LLC: 0

RAW hits: 1983393
Loads Generated: 29313331
Loads sent to L1D: 27329938
Stores Generated: 3743682
Stores sent to L1D: 3743681
Major fault: 0 Minor fault: 27369
Allocated PAGES: 27369
Prefetcher final stats
Training Unit Size: 29
Addr table size: 1699248 1699248


Triggers: 1709201
No Prediction: 1699264 99.4186
Stream end: 85
No translation: 4444 0.260005
Predictions: 79222 4.63503


Stream divergence: 2 0.000117014
Stream divergence -- new stream: 0

DRAM Statistics
 CHANNEL 0
 RQ ROW_BUFFER_HIT:     707022  ROW_BUFFER_MISS:     212335
 DBUS_CONGESTED:         41
 WQ ROW_BUFFER_HIT:       3408  ROW_BUFFER_MISS:      20124  FULL:          0

 AVG_CONGESTED_CYCLE: 4
 All warmup complete: 2
Channel 0 Bank busy for read cycles: 0
Channel 0 Bank busy for write cycles: 0
Channel 0
Rank 0
0banks busy for read cycles: 37399751
0banks busy for write cycles: 11017
1banks busy for read cycles: 22836428
1banks busy for write cycles: 1007834
2banks busy for read cycles: 12024750
2banks busy for write cycles: 591931
3banks busy for read cycles: 4327560
3banks busy for write cycles: 568330
4banks busy for read cycles: 272122
4banks busy for write cycles: 4090
5banks busy for read cycles: 15214
5banks busy for write cycles: 947
6banks busy for read cycles: 15599
6banks busy for write cycles: 797
7banks busy for read cycles: 36338
7banks busy for write cycles: 863
8banks busy for read cycles: 727658
8banks busy for write cycles: 9596

CPU 0 Branch Prediction Accuracy: 83.7552% MPKI: 4.52892 Average ROB Occupancy at Mispredict: 103.015
Branch types
NOT_BRANCH: 48605768 97.2115%
BRANCH_DIRECT_JUMP: 188214 0.376428%
BRANCH_INDIRECT: 0 0%
BRANCH_CONDITIONAL: 1205750 2.4115%
BRANCH_DIRECT_CALL: 0 0%
BRANCH_INDIRECT_CALL: 0 0%
BRANCH_RETURN: 0 0%
BRANCH_OTHER: 0 0%

DRAM PAGES: 1048576
Allocated PAGES: 27369
