
*** ChampSim Multicore Out-of-Order Simulator ***

Warmup Instructions: 50000000
Simulation Instructions: 50000000
Number of CPUs: 1
LLC sets: 2048
LLC ways: 16
Off-chip DRAM Size: 4096 MB Channels: 1 Width: 64-bit Data Rate: 6400 MT/s
CPU 0 runs ./traces/SPEC-CPU2017/410.bwaves-1963B.champsimtrace.xz
.xz
CPU 0 Bimodal branch predictor
BTB has LRU replacement policy
ITLB has LRU replacement policy
DTLB has LRU replacement policy
STLB has LRU replacement policy
L1I has LRU replacement policy
L1D has LRU replacement policy
L2C has LRU replacement policy
LLC has LRU replacement policy
Heartbeat CPU 0 instructions: 10000000 cycles: 4194175 heartbeat IPC: 2.38426 cumulative IPC: 2.38426 (Simulation time: 0 hr 1 min 13 sec) 
Heartbeat CPU 0 instructions: 20000000 cycles: 8388096 heartbeat IPC: 2.3844 cumulative IPC: 2.38433 (Simulation time: 0 hr 2 min 33 sec) 
Heartbeat CPU 0 instructions: 30000001 cycles: 12582471 heartbeat IPC: 2.38415 cumulative IPC: 2.38427 (Simulation time: 0 hr 3 min 55 sec) 
Heartbeat CPU 0 instructions: 40000000 cycles: 16776465 heartbeat IPC: 2.38436 cumulative IPC: 2.38429 (Simulation time: 0 hr 5 min 15 sec) 
Heartbeat CPU 0 instructions: 50000002 cycles: 20971014 heartbeat IPC: 2.38405 cumulative IPC: 2.38424 (Simulation time: 0 hr 6 min 26 sec) 

Warmup complete CPU 0 instructions: 50000002 cycles: 20971014 (Simulation time: 0 hr 6 min 26 sec) 

Heartbeat CPU 0 instructions: 60000000 cycles: 37467543 heartbeat IPC: 0.606188 cumulative IPC: 0.606188 (Simulation time: 0 hr 7 min 42 sec) 
Heartbeat CPU 0 instructions: 70000002 cycles: 53985928 heartbeat IPC: 0.605386 cumulative IPC: 0.605787 (Simulation time: 0 hr 8 min 46 sec) 
Heartbeat CPU 0 instructions: 80000000 cycles: 70498770 heartbeat IPC: 0.605589 cumulative IPC: 0.605721 (Simulation time: 0 hr 10 min 15 sec) 
Heartbeat CPU 0 instructions: 90000001 cycles: 86994348 heartbeat IPC: 0.606223 cumulative IPC: 0.605846 (Simulation time: 0 hr 11 min 18 sec) 
Heartbeat CPU 0 instructions: 100000000 cycles: 103565147 heartbeat IPC: 0.603471 cumulative IPC: 0.60537 (Simulation time: 0 hr 12 min 14 sec) 
Finished CPU 0 instructions: 50000003 cycles: 82594150 cumulative IPC: 0.60537 (Simulation time: 0 hr 12 min 14 sec) 

ChampSim completed all CPUs

Region of Interest Statistics

CPU 0 cumulative IPC: 0.60537 instructions: 50000003 cycles: 82594150
ITLB TOTAL     ACCESS:    6729497  HIT:    6729497  MISS:          0  HIT %:        100  MISS %:          0   MPKI: 0
ITLB LOAD TRANSLATION ACCESS:    6729497  HIT:    6729497  MISS:          0  HIT %:        100  MISS %:          0   MPKI: 0
ITLB PREFETCH  REQUESTED:          0  ISSUED:          0  USEFUL:          0  USELESS:          0
ITLB USEFUL LOAD PREFETCHES:          0 PREFETCH ISSUED TO LOWER LEVEL:          0  ACCURACY: -nan
ITLB TIMELY PREFETCHES:          0 LATE PREFETCHES: 0 DROPPED PREFETCHES: 0
ITLB PREFETCHES SAME FILL-ORIGIN LEVEL: 0 DIFFERENT FILL-ORIGIN LEVEL: 0
ITLB AVERAGE MISS LATENCY: -nan cycles
ITLB RQ	ACCESS:    8512853	FORWARD:          0	MERGED:    1783357	TO_CACHE:    6729496

DTLB TOTAL     ACCESS:   18919787  HIT:   18874242  MISS:      45545  HIT %:    99.7593  MISS %:   0.240727   MPKI: 0.9109
DTLB LOAD TRANSLATION ACCESS:   18919787  HIT:   18874242  MISS:      45545  HIT %:    99.7593  MISS %:   0.240727   MPKI: 0.9109
DTLB PREFETCH  REQUESTED:          0  ISSUED:          0  USEFUL:          0  USELESS:          0
DTLB USEFUL LOAD PREFETCHES:          0 PREFETCH ISSUED TO LOWER LEVEL:          0  ACCURACY: -nan
DTLB TIMELY PREFETCHES:          0 LATE PREFETCHES: 0 DROPPED PREFETCHES: 0
DTLB PREFETCHES SAME FILL-ORIGIN LEVEL: 0 DIFFERENT FILL-ORIGIN LEVEL: 0
DTLB AVERAGE MISS LATENCY: 150.269 cycles
DTLB RQ	ACCESS:   24518050	FORWARD:          0	MERGED:    5594061	TO_CACHE:   18923989

STLB TOTAL     ACCESS:      45545  HIT:      31581  MISS:      13964  HIT %:    69.3402  MISS %:    30.6598   MPKI: 0.27928
STLB LOAD TRANSLATION ACCESS:      45545  HIT:      31581  MISS:      13964  HIT %:    69.3402  MISS %:    30.6598   MPKI: 0.27928
STLB PREFETCH  REQUESTED:          0  ISSUED:          0  USEFUL:          0  USELESS:          0
STLB USEFUL LOAD PREFETCHES:          0 PREFETCH ISSUED TO LOWER LEVEL:          0  ACCURACY: -nan
STLB TIMELY PREFETCHES:          0 LATE PREFETCHES: 0 DROPPED PREFETCHES: 0
STLB PREFETCHES SAME FILL-ORIGIN LEVEL: 0 DIFFERENT FILL-ORIGIN LEVEL: 0
STLB AVERAGE MISS LATENCY: 439.138 cycles
STLB RQ	ACCESS:      45545	FORWARD:          0	MERGED:          0	TO_CACHE:      45545

STLB Hit, L1D data hit: 0
STLB Hit, L2C data hit: 0
STLB Hit, LLC data hit: 0
STLB Hit, LLC data miss: 0
STLB STLB hints to L2: 0
L1D TOTAL     ACCESS:   24205313  HIT:   23240663  MISS:     964650  HIT %:    96.0147  MISS %:    3.98528   MPKI: 19.293
L1D LOAD      ACCESS:   20473223  HIT:   19532100  MISS:     941123  HIT %:    95.4032  MISS %:    4.59685   MPKI: 18.8225
L1D RFO       ACCESS:    3732090  HIT:    3708563  MISS:      23527  HIT %:    99.3696  MISS %:   0.630397   MPKI: 0.47054
L1D PREFETCH  REQUESTED:          0  ISSUED:          0  USEFUL:          0  USELESS:          0
L1D USEFUL LOAD PREFETCHES:          0 PREFETCH ISSUED TO LOWER LEVEL:          0  ACCURACY: -nan
L1D TIMELY PREFETCHES:          0 LATE PREFETCHES: 0 DROPPED PREFETCHES: 0
L1D PREFETCHES SAME FILL-ORIGIN LEVEL: 0 DIFFERENT FILL-ORIGIN LEVEL: 0
L1D AVERAGE MISS LATENCY: 298.749 cycles
L1D RQ	ACCESS:   27322575	FORWARD:          0	MERGED:    6319544	TO_CACHE:   20774467
L1D WQ	ACCESS:    3743681	FORWARD:     228564	MERGED:         98	TO_CACHE:    3743583

L1D UNIQUE REGIONS ACCESSED: 0
L1D REGIONS CONFLICTS: 0
L1D Cross Page Prefetch Requests: 0
L1D Same Page Prefetch Requests: 0
L1D ROI Sum of L1D PQ occupancy: 0
L1D PREFETCHES PUSHED FROM L2C: 0
L1I TOTAL     ACCESS:    8512852  HIT:    8512852  MISS:          0  HIT %:        100  MISS %:          0   MPKI: 0
L1I LOAD      ACCESS:    8512852  HIT:    8512852  MISS:          0  HIT %:        100  MISS %:          0   MPKI: 0
L1I PREFETCH  REQUESTED:          0  ISSUED:          0  USEFUL:          0  USELESS:          0
L1I USEFUL LOAD PREFETCHES:          0 PREFETCH ISSUED TO LOWER LEVEL:          0  ACCURACY: -nan
L1I TIMELY PREFETCHES:          0 LATE PREFETCHES: 0 DROPPED PREFETCHES: 0
L1I PREFETCHES SAME FILL-ORIGIN LEVEL: 0 DIFFERENT FILL-ORIGIN LEVEL: 0
L1I AVERAGE MISS LATENCY: -nan cycles
L1I RQ	ACCESS:   10546010	FORWARD:          0	MERGED:    2033157	TO_CACHE:    8512853

BTB TOTAL     ACCESS:    1355683  HIT:    1355675  MISS:          8  HIT %:    99.9994  MISS %: 0.000590108   MPKI: 0.00016
BTB BRANCH_DIRECT_JUMP	ACCESS:     188214  HIT:     188210  MISS:          4
BTB BRANCH_INDIRECT	ACCESS:          0  HIT:          0  MISS:          0
BTB BRANCH_CONDITIONAL	ACCESS:    1167469  HIT:    1167465  MISS:          4
BTB BRANCH_DIRECT_CALL	ACCESS:          0  HIT:          0  MISS:          0
BTB BRANCH_INDIRECT_CALL	ACCESS:          0  HIT:          0  MISS:          0
BTB BRANCH_RETURN	ACCESS:          0  HIT:          0  MISS:          0
BTB BRANCH_OTHER ACCESS:          0  HIT:          0  MISS:          0

L2C TOTAL     ACCESS:    1002152  HIT:      82791  MISS:     919361  HIT %:    8.26132  MISS %:    91.7387   MPKI: 18.3872
L2C LOAD      ACCESS:     941123  HIT:      47097  MISS:     894026  HIT %:    5.00434  MISS %:    94.9957   MPKI: 17.8805
L2C DATA LOAD MPKI: 17.8805
L2C INSTRUCTION LOAD MPKI: 0
L2C RFO       ACCESS:      23527  HIT:          0  MISS:      23527  HIT %:          0  MISS %:        100   MPKI: 0.47054
L2C WRITEBACK ACCESS:      23536  HIT:      23536  MISS:          0  HIT %:        100  MISS %:          0   MPKI: 0
L2C LOAD TRANSLATION ACCESS:      13966  HIT:      12158  MISS:       1808  HIT %:    87.0543  MISS %:    12.9457   MPKI: 0.03616
L2C PREFETCH  REQUESTED:          0  ISSUED:          0  USEFUL:          0  USELESS:          0
L2C USEFUL LOAD PREFETCHES:          0 PREFETCH ISSUED TO LOWER LEVEL:          0  ACCURACY: -nan
L2C TIMELY PREFETCHES:          0 LATE PREFETCHES: 0 DROPPED PREFETCHES: 0
L2C PREFETCHES SAME FILL-ORIGIN LEVEL: 0 DIFFERENT FILL-ORIGIN LEVEL: 0
L2C AVERAGE MISS LATENCY: 296.594 cycles
L2C RQ	ACCESS:     978616	FORWARD:          0	MERGED:          0	TO_CACHE:     978616
L2C WQ	ACCESS:      23536	FORWARD:          0	MERGED:          0	TO_CACHE:      23536

L2C Instructions Evicting Data 0
L2C Translations Evicting Data 1808
L2C Data Evicting Data 915743
L2C Instructions Evicting Instructions 0
L2C Translations Evicting Instructions 0
L2C Data Evicting Instructions 0
L2C Instructions Evicting Translations 0
L2C Translations Evicting Translations 0
L2C Data Evicting Translations 1810
L2C Dense regions hint from L2: 0
PSCL5 TOTAL     ACCESS:      13964  HIT:      13964  MISS:          0  HIT %:        100  MISS %:          0   MPKI: 0
PSCL5 LOAD TRANSLATION ACCESS:      13964  HIT:      13964  MISS:          0  HIT %:        100  MISS %:          0   MPKI: 0
PSCL5 PREFETCH  REQUESTED:          0  ISSUED:          0  USEFUL:          0  USELESS:          0
PSCL5 USEFUL LOAD PREFETCHES:          0 PREFETCH ISSUED TO LOWER LEVEL:          0  ACCURACY: -nan
PSCL5 TIMELY PREFETCHES:          0 LATE PREFETCHES: 0 DROPPED PREFETCHES: 0
PSCL5 PREFETCHES SAME FILL-ORIGIN LEVEL: 0 DIFFERENT FILL-ORIGIN LEVEL: 0

PSCL4 TOTAL     ACCESS:      13964  HIT:      13964  MISS:          0  HIT %:        100  MISS %:          0   MPKI: 0
PSCL4 LOAD TRANSLATION ACCESS:      13964  HIT:      13964  MISS:          0  HIT %:        100  MISS %:          0   MPKI: 0
PSCL4 PREFETCH  REQUESTED:          0  ISSUED:          0  USEFUL:          0  USELESS:          0
PSCL4 USEFUL LOAD PREFETCHES:          0 PREFETCH ISSUED TO LOWER LEVEL:          0  ACCURACY: -nan
PSCL4 TIMELY PREFETCHES:          0 LATE PREFETCHES: 0 DROPPED PREFETCHES: 0
PSCL4 PREFETCHES SAME FILL-ORIGIN LEVEL: 0 DIFFERENT FILL-ORIGIN LEVEL: 0

PSCL3 TOTAL     ACCESS:      13964  HIT:      13964  MISS:          0  HIT %:        100  MISS %:          0   MPKI: 0
PSCL3 LOAD TRANSLATION ACCESS:      13964  HIT:      13964  MISS:          0  HIT %:        100  MISS %:          0   MPKI: 0
PSCL3 PREFETCH  REQUESTED:          0  ISSUED:          0  USEFUL:          0  USELESS:          0
PSCL3 USEFUL LOAD PREFETCHES:          0 PREFETCH ISSUED TO LOWER LEVEL:          0  ACCURACY: -nan
PSCL3 TIMELY PREFETCHES:          0 LATE PREFETCHES: 0 DROPPED PREFETCHES: 0
PSCL3 PREFETCHES SAME FILL-ORIGIN LEVEL: 0 DIFFERENT FILL-ORIGIN LEVEL: 0

PSCL2 TOTAL     ACCESS:      13964  HIT:      13936  MISS:         28  HIT %:    99.7995  MISS %:   0.200516   MPKI: 0.00056
PSCL2 LOAD TRANSLATION ACCESS:      13964  HIT:      13936  MISS:         28  HIT %:    99.7995  MISS %:   0.200516   MPKI: 0.00056
PSCL2 PREFETCH  REQUESTED:          0  ISSUED:          0  USEFUL:          0  USELESS:          0
PSCL2 USEFUL LOAD PREFETCHES:          0 PREFETCH ISSUED TO LOWER LEVEL:          0  ACCURACY: -nan
PSCL2 TIMELY PREFETCHES:          0 LATE PREFETCHES: 0 DROPPED PREFETCHES: 0
PSCL2 PREFETCHES SAME FILL-ORIGIN LEVEL: 0 DIFFERENT FILL-ORIGIN LEVEL: 0

LLC TOTAL     ACCESS:     942880  HIT:      23519  MISS:     919361  HIT %:    2.49438  MISS %:    97.5056   MPKI: 18.3872
LLC LOAD      ACCESS:     894026  HIT:          0  MISS:     894026  HIT %:          0  MISS %:        100   MPKI: 17.8805
LLC RFO       ACCESS:      23527  HIT:          0  MISS:      23527  HIT %:          0  MISS %:        100   MPKI: 0.47054
LLC WRITEBACK ACCESS:      23519  HIT:      23519  MISS:          0  HIT %:        100  MISS %:          0   MPKI: 0
LLC LOAD TRANSLATION ACCESS:       1808  HIT:          0  MISS:       1808  HIT %:          0  MISS %:        100   MPKI: 0.03616
LLC PREFETCH  REQUESTED:          0  ISSUED:          0  USEFUL:          0  USELESS:          0
LLC USEFUL LOAD PREFETCHES:          0 PREFETCH ISSUED TO LOWER LEVEL:          0  ACCURACY: -nan
LLC TIMELY PREFETCHES:          0 LATE PREFETCHES: 0 DROPPED PREFETCHES: 0
LLC PREFETCHES SAME FILL-ORIGIN LEVEL: 0 DIFFERENT FILL-ORIGIN LEVEL: 0
LLC AVERAGE MISS LATENCY: 265.932 cycles
LLC RQ	ACCESS:     919361	FORWARD:          0	MERGED:          0	TO_CACHE:     919361
LLC WQ	ACCESS:      23519	FORWARD:          0	MERGED:          0	TO_CACHE:      23519

LLC Dense regions hint to LLC: 0

RAW hits: 1990756
Loads Generated: 29313331
Loads sent to L1D: 27322575
Stores Generated: 3743682
Stores sent to L1D: 3743681
Major fault: 0 Minor fault: 27369
Allocated PAGES: 27369

DRAM Statistics
 CHANNEL 0
 RQ ROW_BUFFER_HIT:     705263  ROW_BUFFER_MISS:     214098
 DBUS_CONGESTED:         40
 WQ ROW_BUFFER_HIT:       2927  ROW_BUFFER_MISS:      20605  FULL:          0

 AVG_CONGESTED_CYCLE: 5
 All warmup complete: 2
Channel 0 Bank busy for read cycles: 0
Channel 0 Bank busy for write cycles: 0
Channel 0
Rank 0
0banks busy for read cycles: 37391674
0banks busy for write cycles: 11567
1banks busy for read cycles: 24389185
1banks busy for write cycles: 1125534
2banks busy for read cycles: 12999380
2banks busy for write cycles: 627508
3banks busy for read cycles: 4850876
3banks busy for write cycles: 582607
4banks busy for read cycles: 606961
4banks busy for write cycles: 6823
5banks busy for read cycles: 2036
5banks busy for write cycles: 0
6banks busy for read cycles: 0
6banks busy for write cycles: 0
7banks busy for read cycles: 0
7banks busy for write cycles: 0
8banks busy for read cycles: 0
8banks busy for write cycles: 0

CPU 0 Branch Prediction Accuracy: 83.7552% MPKI: 4.52892 Average ROB Occupancy at Mispredict: 104.344
Branch types
NOT_BRANCH: 48605768 97.2115%
BRANCH_DIRECT_JUMP: 188214 0.376428%
BRANCH_INDIRECT: 0 0%
BRANCH_CONDITIONAL: 1205750 2.4115%
BRANCH_DIRECT_CALL: 0 0%
BRANCH_INDIRECT_CALL: 0 0%
BRANCH_RETURN: 0 0%
BRANCH_OTHER: 0 0%

DRAM PAGES: 1048576
Allocated PAGES: 27369
