
*** ChampSim Multicore Out-of-Order Simulator ***

Warmup Instructions: 50000000
Simulation Instructions: 50000000
Number of CPUs: 1
LLC sets: 2048
LLC ways: 16
Off-chip DRAM Size: 4096 MB Channels: 1 Width: 64-bit Data Rate: 6400 MT/s
CPU 0 runs ./traces/SPEC-CPU2017/410.bwaves-1963B.champsimtrace.xz
.xz
CPU 0 Bimodal branch predictor
BTB has LRU replacement policy
ITLB has LRU replacement policy
DTLB has LRU replacement policy
STLB has LRU replacement policy
L1I has LRU replacement policy
L1D has LRU replacement policy
L2C has LRU replacement policy
LLC has LRU replacement policy
Heartbeat CPU 0 instructions: 10000000 cycles: 4191255 heartbeat IPC: 2.38592 cumulative IPC: 2.38592 (Simulation time: 0 hr 23 min 57 sec) 
Heartbeat CPU 0 instructions: 20000000 cycles: 8382369 heartbeat IPC: 2.386 cumulative IPC: 2.38596 (Simulation time: 0 hr 49 min 29 sec) 
Heartbeat CPU 0 instructions: 30000001 cycles: 12573871 heartbeat IPC: 2.38578 cumulative IPC: 2.3859 (Simulation time: 1 hr 8 min 53 sec) 
Heartbeat CPU 0 instructions: 40000000 cycles: 16764833 heartbeat IPC: 2.38609 cumulative IPC: 2.38595 (Simulation time: 1 hr 26 min 29 sec) 
Heartbeat CPU 0 instructions: 50000002 cycles: 20956267 heartbeat IPC: 2.38582 cumulative IPC: 2.38592 (Simulation time: 1 hr 43 min 59 sec) 

Warmup complete CPU 0 instructions: 50000002 cycles: 20956267 (Simulation time: 1 hr 43 min 59 sec) 

Heartbeat CPU 0 instructions: 60000000 cycles: 30599257 heartbeat IPC: 1.03702 cumulative IPC: 1.03702 (Simulation time: 1 hr 56 min 43 sec) 
Heartbeat CPU 0 instructions: 70000002 cycles: 40259194 heartbeat IPC: 1.0352 cumulative IPC: 1.03611 (Simulation time: 2 hr 9 min 31 sec) 
Heartbeat CPU 0 instructions: 80000000 cycles: 49909685 heartbeat IPC: 1.03622 cumulative IPC: 1.03615 (Simulation time: 2 hr 22 min 41 sec) 
Heartbeat CPU 0 instructions: 90000001 cycles: 59567876 heartbeat IPC: 1.03539 cumulative IPC: 1.03596 (Simulation time: 2 hr 35 min 51 sec) 
Heartbeat CPU 0 instructions: 100000000 cycles: 69227208 heartbeat IPC: 1.03527 cumulative IPC: 1.03582 (Simulation time: 2 hr 49 min 3 sec) 
Finished CPU 0 instructions: 50000003 cycles: 48270958 cumulative IPC: 1.03582 (Simulation time: 2 hr 49 min 3 sec) 

ChampSim completed all CPUs

Region of Interest Statistics

CPU 0 cumulative IPC: 1.03582 instructions: 50000003 cycles: 48270958
ITLB TOTAL     ACCESS:    6599451  HIT:    6599451  MISS:          0  HIT %:        100  MISS %:          0   MPKI: 0
ITLB LOAD TRANSLATION ACCESS:    6599451  HIT:    6599451  MISS:          0  HIT %:        100  MISS %:          0   MPKI: 0
ITLB PREFETCH  REQUESTED:          0  ISSUED:          0  USEFUL:          0  USELESS:          0
ITLB USEFUL LOAD PREFETCHES:          0 PREFETCH ISSUED TO LOWER LEVEL:          0  ACCURACY: -nan
ITLB TIMELY PREFETCHES:          0 LATE PREFETCHES: 0 DROPPED PREFETCHES: 0
ITLB PREFETCHES SAME FILL-ORIGIN LEVEL: 0 DIFFERENT FILL-ORIGIN LEVEL: 0
ITLB AVERAGE MISS LATENCY: -nan cycles
ITLB RQ	ACCESS:    8370466	FORWARD:          0	MERGED:    1771016	TO_CACHE:    6599450

DTLB TOTAL     ACCESS:   19213246  HIT:   19165813  MISS:      47433  HIT %:    99.7531  MISS %:   0.246877   MPKI: 0.94866
DTLB LOAD TRANSLATION ACCESS:   19213246  HIT:   19165813  MISS:      47433  HIT %:    99.7531  MISS %:   0.246877   MPKI: 0.94866
DTLB PREFETCH  REQUESTED:          0  ISSUED:          0  USEFUL:          0  USELESS:          0
DTLB USEFUL LOAD PREFETCHES:          0 PREFETCH ISSUED TO LOWER LEVEL:          0  ACCURACY: -nan
DTLB TIMELY PREFETCHES:          0 LATE PREFETCHES: 0 DROPPED PREFETCHES: 0
DTLB PREFETCHES SAME FILL-ORIGIN LEVEL: 0 DIFFERENT FILL-ORIGIN LEVEL: 0
DTLB AVERAGE MISS LATENCY: 148.541 cycles
DTLB RQ	ACCESS:   24986702	FORWARD:          0	MERGED:    5769245	TO_CACHE:   19217457

STLB TOTAL     ACCESS:    4069526  HIT:    4055739  MISS:      13787  HIT %:    99.6612  MISS %:   0.338786   MPKI: 0.27574
STLB LOAD TRANSLATION ACCESS:      47433  HIT:      33703  MISS:      13730  HIT %:    71.0539  MISS %:    28.9461   MPKI: 0.2746
STLB TRANSLATION FROM L1D PREFETCHER ACCESS:    4022093  HIT:    4022036  MISS:         57  HIT %:    99.9986  MISS %: 0.00141717   MPKI: 0.00114
STLB PREFETCH  REQUESTED:          0  ISSUED:          0  USEFUL:         57  USELESS:          0
STLB USEFUL LOAD PREFETCHES:         57 PREFETCH ISSUED TO LOWER LEVEL:          0  ACCURACY: inf
STLB TIMELY PREFETCHES:         57 LATE PREFETCHES: 0 DROPPED PREFETCHES: 0
STLB PREFETCHES SAME FILL-ORIGIN LEVEL: 0 DIFFERENT FILL-ORIGIN LEVEL: 0
STLB AVERAGE MISS LATENCY: 458.684 cycles
STLB RQ	ACCESS:   10621862	FORWARD:          0	MERGED:    6552337	TO_CACHE:    4069525

STLB Hit, L1D data hit: 0
STLB Hit, L2C data hit: 0
STLB Hit, LLC data hit: 0
STLB Hit, LLC data miss: 0
STLB STLB hints to L2: 0
L1D TOTAL     ACCESS:   35301026  HIT:   34334771  MISS:     966255  HIT %:    97.2628  MISS %:    2.73719   MPKI: 19.3251
L1D LOAD      ACCESS:   21231027  HIT:   21173087  MISS:      57940  HIT %:    99.7271  MISS %:   0.272902   MPKI: 1.1588
L1D RFO       ACCESS:    3723548  HIT:    3700021  MISS:      23527  HIT %:    99.3682  MISS %:   0.631844   MPKI: 0.47054
L1D PREFETCH  ACCESS:   10346451  HIT:    9461663  MISS:     884788  HIT %:    91.4484  MISS %:    8.55161   MPKI: 17.6958
AGUS PREFETCH L1 MISS: 0
L1D PREFETCH  REQUESTED:   44101251  ISSUED:   21183067  USEFUL:     883013  USELESS:       1784
L1D USEFUL LOAD PREFETCHES:     883013 PREFETCH ISSUED TO LOWER LEVEL:     897650  ACCURACY: 98.3694
L1D TIMELY PREFETCHES:     883013 LATE PREFETCHES: 12861 DROPPED PREFETCHES: 0
L1D PREFETCHES SAME FILL-ORIGIN LEVEL: 897650 DIFFERENT FILL-ORIGIN LEVEL: 0
L1D AVERAGE MISS LATENCY: 171.841 cycles
L1D RQ	ACCESS:   27620664	FORWARD:          0	MERGED:    6122815	TO_CACHE:   21243062
L1D WQ	ACCESS:    3743681	FORWARD:     254787	MERGED:         41	TO_CACHE:    3743640
L1D PQ	ACCESS:   10608638	FORWARD:          0	MERGED:      34209	TO_CACHE:   10574429

L1D UNIQUE REGIONS ACCESSED: 0
L1D REGIONS CONFLICTS: 0
L1D Cross Page Prefetch Requests: 133874
L1D Same Page Prefetch Requests: 24774370
L1D ROI Sum of L1D PQ occupancy: 151694587
L1D PREFETCHES PUSHED FROM L2C: 0
L1I TOTAL     ACCESS:    8370465  HIT:    8370465  MISS:          0  HIT %:        100  MISS %:          0   MPKI: 0
L1I LOAD      ACCESS:    8370465  HIT:    8370465  MISS:          0  HIT %:        100  MISS %:          0   MPKI: 0
L1I PREFETCH  REQUESTED:          0  ISSUED:          0  USEFUL:          0  USELESS:          0
L1I USEFUL LOAD PREFETCHES:          0 PREFETCH ISSUED TO LOWER LEVEL:          0  ACCURACY: -nan
L1I TIMELY PREFETCHES:          0 LATE PREFETCHES: 0 DROPPED PREFETCHES: 0
L1I PREFETCHES SAME FILL-ORIGIN LEVEL: 0 DIFFERENT FILL-ORIGIN LEVEL: 0
L1I AVERAGE MISS LATENCY: -nan cycles
L1I RQ	ACCESS:   10303367	FORWARD:          0	MERGED:    1932901	TO_CACHE:    8370466

BTB TOTAL     ACCESS:    1355683  HIT:    1355675  MISS:          8  HIT %:    99.9994  MISS %: 0.000590108   MPKI: 0.00016
BTB BRANCH_DIRECT_JUMP	ACCESS:     188214  HIT:     188210  MISS:          4
BTB BRANCH_INDIRECT	ACCESS:          0  HIT:          0  MISS:          0
BTB BRANCH_CONDITIONAL	ACCESS:    1167469  HIT:    1167465  MISS:          4
BTB BRANCH_DIRECT_CALL	ACCESS:          0  HIT:          0  MISS:          0
BTB BRANCH_INDIRECT_CALL	ACCESS:          0  HIT:          0  MISS:          0
BTB BRANCH_RETURN	ACCESS:          0  HIT:          0  MISS:          0
BTB BRANCH_OTHER ACCESS:          0  HIT:          0  MISS:          0

L2C TOTAL     ACCESS:    1003583  HIT:      84234  MISS:     919349  HIT %:    8.39333  MISS %:    91.6067   MPKI: 18.387
L2C LOAD      ACCESS:      45079  HIT:        559  MISS:      44520  HIT %:    1.24005  MISS %:      98.76   MPKI: 0.8904
L2C DATA LOAD MPKI: 0.8904
L2C INSTRUCTION LOAD MPKI: 0
L2C RFO       ACCESS:      23527  HIT:          0  MISS:      23527  HIT %:          0  MISS %:        100   MPKI: 0.47054
L2C PREFETCH  ACCESS:     897649  HIT:      48154  MISS:     849495  HIT %:    5.36446  MISS %:    94.6355   MPKI: 16.9899
AGUS PREFETCH L1 MISS: 0
L2C DATA PREFETCH MPKI: 16.9899
L2C INSTRUCTION PREFETCH MPKI: 0
L2C WRITEBACK ACCESS:      23539  HIT:      23539  MISS:          0  HIT %:        100  MISS %:          0   MPKI: 0
L2C LOAD TRANSLATION ACCESS:      13732  HIT:      11950  MISS:       1782  HIT %:     87.023  MISS %:     12.977   MPKI: 0.03564
L2C TRANSLATION FROM L1D PREFETCHER ACCESS:         57  HIT:         32  MISS:         25  HIT %:    56.1404  MISS %:    43.8596   MPKI: 0.0005
L2C PREFETCH  REQUESTED:          0  ISSUED:          0  USEFUL:        214  USELESS:     849476
L2C USEFUL LOAD PREFETCHES:        214 PREFETCH ISSUED TO LOWER LEVEL:     849496  ACCURACY: 0.0251914
L2C TIMELY PREFETCHES:        214 LATE PREFETCHES: 0 DROPPED PREFETCHES: 0
L2C PREFETCHES SAME FILL-ORIGIN LEVEL: 0 DIFFERENT FILL-ORIGIN LEVEL: 0
L2C AVERAGE MISS LATENCY: 160.455 cycles
L2C RQ	ACCESS:      82395	FORWARD:          0	MERGED:          0	TO_CACHE:      82395
L2C WQ	ACCESS:      23539	FORWARD:          0	MERGED:          0	TO_CACHE:      23539
L2C PQ	ACCESS:     897650	FORWARD:          0	MERGED:          0	TO_CACHE:     897650

L2C Instructions Evicting Data 0
L2C Translations Evicting Data 1807
L2C Data Evicting Data 915732
L2C Instructions Evicting Instructions 0
L2C Translations Evicting Instructions 0
L2C Data Evicting Instructions 0
L2C Instructions Evicting Translations 0
L2C Translations Evicting Translations 0
L2C Data Evicting Translations 1810
L2C Dense regions hint from L2: 0
PSCL5 TOTAL     ACCESS:      13787  HIT:      13787  MISS:          0  HIT %:        100  MISS %:          0   MPKI: 0
PSCL5 LOAD TRANSLATION ACCESS:      13730  HIT:      13730  MISS:          0  HIT %:        100  MISS %:          0   MPKI: 0
PSCL5 TRANSLATION FROM L1D PREFETCHER ACCESS:         57  HIT:         57  MISS:          0  HIT %:        100  MISS %:          0   MPKI: 0
PSCL5 PREFETCH  REQUESTED:          0  ISSUED:          0  USEFUL:          0  USELESS:          0
PSCL5 USEFUL LOAD PREFETCHES:          0 PREFETCH ISSUED TO LOWER LEVEL:          0  ACCURACY: -nan
PSCL5 TIMELY PREFETCHES:          0 LATE PREFETCHES: 0 DROPPED PREFETCHES: 0
PSCL5 PREFETCHES SAME FILL-ORIGIN LEVEL: 0 DIFFERENT FILL-ORIGIN LEVEL: 0

PSCL4 TOTAL     ACCESS:      13787  HIT:      13787  MISS:          0  HIT %:        100  MISS %:          0   MPKI: 0
PSCL4 LOAD TRANSLATION ACCESS:      13730  HIT:      13730  MISS:          0  HIT %:        100  MISS %:          0   MPKI: 0
PSCL4 TRANSLATION FROM L1D PREFETCHER ACCESS:         57  HIT:         57  MISS:          0  HIT %:        100  MISS %:          0   MPKI: 0
PSCL4 PREFETCH  REQUESTED:          0  ISSUED:          0  USEFUL:          0  USELESS:          0
PSCL4 USEFUL LOAD PREFETCHES:          0 PREFETCH ISSUED TO LOWER LEVEL:          0  ACCURACY: -nan
PSCL4 TIMELY PREFETCHES:          0 LATE PREFETCHES: 0 DROPPED PREFETCHES: 0
PSCL4 PREFETCHES SAME FILL-ORIGIN LEVEL: 0 DIFFERENT FILL-ORIGIN LEVEL: 0

PSCL3 TOTAL     ACCESS:      13787  HIT:      13787  MISS:          0  HIT %:        100  MISS %:          0   MPKI: 0
PSCL3 LOAD TRANSLATION ACCESS:      13730  HIT:      13730  MISS:          0  HIT %:        100  MISS %:          0   MPKI: 0
PSCL3 TRANSLATION FROM L1D PREFETCHER ACCESS:         57  HIT:         57  MISS:          0  HIT %:        100  MISS %:          0   MPKI: 0
PSCL3 PREFETCH  REQUESTED:          0  ISSUED:          0  USEFUL:          0  USELESS:          0
PSCL3 USEFUL LOAD PREFETCHES:          0 PREFETCH ISSUED TO LOWER LEVEL:          0  ACCURACY: -nan
PSCL3 TIMELY PREFETCHES:          0 LATE PREFETCHES: 0 DROPPED PREFETCHES: 0
PSCL3 PREFETCHES SAME FILL-ORIGIN LEVEL: 0 DIFFERENT FILL-ORIGIN LEVEL: 0

PSCL2 TOTAL     ACCESS:      13787  HIT:      13759  MISS:         28  HIT %:    99.7969  MISS %:    0.20309   MPKI: 0.00056
PSCL2 LOAD TRANSLATION ACCESS:      13730  HIT:      13702  MISS:         28  HIT %:    99.7961  MISS %:   0.203933   MPKI: 0.00056
PSCL2 TRANSLATION FROM L1D PREFETCHER ACCESS:         57  HIT:         57  MISS:          0  HIT %:        100  MISS %:          0   MPKI: 0
PSCL2 PREFETCH  REQUESTED:          0  ISSUED:          0  USEFUL:          0  USELESS:          0
PSCL2 USEFUL LOAD PREFETCHES:          0 PREFETCH ISSUED TO LOWER LEVEL:          0  ACCURACY: -nan
PSCL2 TIMELY PREFETCHES:          0 LATE PREFETCHES: 0 DROPPED PREFETCHES: 0
PSCL2 PREFETCHES SAME FILL-ORIGIN LEVEL: 0 DIFFERENT FILL-ORIGIN LEVEL: 0

LLC TOTAL     ACCESS:     942873  HIT:      23536  MISS:     919337  HIT %:     2.4962  MISS %:    97.5038   MPKI: 18.3867
LLC LOAD      ACCESS:      44520  HIT:          0  MISS:      44520  HIT %:          0  MISS %:        100   MPKI: 0.8904
LLC RFO       ACCESS:      23527  HIT:          0  MISS:      23527  HIT %:          0  MISS %:        100   MPKI: 0.47054
LLC PREFETCH  ACCESS:     849495  HIT:          0  MISS:     849495  HIT %:          0  MISS %:        100   MPKI: 16.9899
AGUS PREFETCH L1 MISS: 0
LLC WRITEBACK ACCESS:      23524  HIT:      23524  MISS:          0  HIT %:        100  MISS %:          0   MPKI: 0
LLC LOAD TRANSLATION ACCESS:       1782  HIT:          7  MISS:       1775  HIT %:   0.392817  MISS %:    99.6072   MPKI: 0.0355
LLC TRANSLATION FROM L1D PREFETCHER ACCESS:         25  HIT:          5  MISS:         20  HIT %:         20  MISS %:         80   MPKI: 0.0004
LLC PREFETCH  REQUESTED:          0  ISSUED:          0  USEFUL:          3  USELESS:     850211
LLC USEFUL LOAD PREFETCHES:          3 PREFETCH ISSUED TO LOWER LEVEL:     849496  ACCURACY: 0.000353151
LLC TIMELY PREFETCHES:          3 LATE PREFETCHES: 0 DROPPED PREFETCHES: 0
LLC PREFETCHES SAME FILL-ORIGIN LEVEL: 0 DIFFERENT FILL-ORIGIN LEVEL: 0
LLC AVERAGE MISS LATENCY: 129.317 cycles
LLC RQ	ACCESS:      69854	FORWARD:          0	MERGED:          0	TO_CACHE:      69854
LLC WQ	ACCESS:      23524	FORWARD:          0	MERGED:          0	TO_CACHE:      23524
LLC PQ	ACCESS:     849496	FORWARD:          0	MERGED:          0	TO_CACHE:     849496

LLC Dense regions hint to LLC: 0

RAW hits: 1692667
Loads Generated: 29313331
Loads sent to L1D: 27620664
Stores Generated: 3743682
Stores sent to L1D: 3743681
Major fault: 0 Minor fault: 27369
Allocated PAGES: 27369

stream: 
stream:times selected: 10163843
stream:pref_reqs: 57312549
stream:pref_reqs_filtered_out: 4340034
stream:pref_filled: 1770793
stream:pref_useful: 1770265
stream:pref_late: 13370
stream:misses: 154
stream:misses_by_poll: 0

CS: 
CS:times selected: 8555878
CS:pref_reqs: 25363859
CS:pref_reqs_filtered_out: 23950538
CS:pref_filled: 12466
CS:pref_useful: 12466
CS:pref_late: 286
CS:misses: 17451
CS:misses_by_poll: 47

CPLX: 
CPLX:times selected: 1607814
CPLX:pref_reqs: 4179866
CPLX:pref_reqs_filtered_out: 2279637
CPLX:pref_filled: 17329
CPLX:pref_useful: 13860
CPLX:pref_late: 124
CPLX:misses: 10129
CPLX:misses_by_poll: 46

ISB: 
ISB:total access:39372371
ISB:times selected:21529119
ISB:canary counter:0
ISB:pref_reqs: 16834796
ISB:pref_reqs_filtered_out: 9000630
ISB:pref_filled: 2623
ISB:pref_useful: 2456
ISB:pref_late: 0
ISB:misses: 47276
ISB:misses_by_poll: 15
ISB:Stream end: 21528900
ISB:No Prediction: 17843252 45.3192
ISB:No translation: 463413111
ISB:Predictions: 4263643 10.829

NL_L1: 
NL:times selected: 2197
NL:pref_reqs: 2197
NL:pref_reqs_filtered_out: 940
NL:pref_filled: 277
NL:pref_useful: 277
NL:pref_late: 13
NL:misses: 30
NL:misses_by_poll: 0

Coverage: 93.8424
total selections: 41858851
total_filled: 884788
total_useful: 883013
total_late: 13889
total_polluted: 108
total_misses_after_warmup: 69989
conflicts: 804397

test: 0
ISB Prefetcher final stats
Prefetcher final stats
Training Unit Size: 193
Addr table size: 1699207 1703922
Triggers: 39372371
Structural address exists: 21529119 54.6808
No Prediction: 17843252 45.3192
Prefetches issued: 4263643 10.829
Stream end: 21528900
No translation: 463413111
%Stream divergence: 1513218 3.84335
Stream divergence -- new stream: 0
A: 0
B: 0
C: 10163849
D: 10163849
E: 10163849
F: 0
G: 0

DRAM Statistics
 CHANNEL 0
 RQ ROW_BUFFER_HIT:     606592  ROW_BUFFER_MISS:     312745
 DBUS_CONGESTED:        482
 WQ ROW_BUFFER_HIT:       6374  ROW_BUFFER_MISS:      17158  FULL:          0

 AVG_CONGESTED_CYCLE: 4
 All warmup complete: 2
Channel 0 Bank busy for read cycles: 0
Channel 0 Bank busy for write cycles: 0
Channel 0
Rank 0
0banks busy for read cycles: 15552783
0banks busy for write cycles: 4570
1banks busy for read cycles: 11107554
1banks busy for write cycles: 364905
2banks busy for read cycles: 7371791
2banks busy for write cycles: 270409
3banks busy for read cycles: 5330420
3banks busy for write cycles: 252547
4banks busy for read cycles: 3476194
4banks busy for write cycles: 199545
5banks busy for read cycles: 2009900
5banks busy for write cycles: 153285
6banks busy for read cycles: 1016519
6banks busy for write cycles: 137535
7banks busy for read cycles: 594364
7banks busy for write cycles: 113811
8banks busy for read cycles: 149025
8banks busy for write cycles: 165802

CPU 0 Branch Prediction Accuracy: 83.7552% MPKI: 4.52892 Average ROB Occupancy at Mispredict: 59.4123
Branch types
NOT_BRANCH: 48605768 97.2115%
BRANCH_DIRECT_JUMP: 188214 0.376428%
BRANCH_INDIRECT: 0 0%
BRANCH_CONDITIONAL: 1205750 2.4115%
BRANCH_DIRECT_CALL: 0 0%
BRANCH_INDIRECT_CALL: 0 0%
BRANCH_RETURN: 0 0%
BRANCH_OTHER: 0 0%

DRAM PAGES: 1048576
Allocated PAGES: 27369
