
*** ChampSim Multicore Out-of-Order Simulator ***

Warmup Instructions: 50000000
Simulation Instructions: 50000000
Number of CPUs: 1
LLC sets: 2048
LLC ways: 16
Off-chip DRAM Size: 4096 MB Channels: 1 Width: 64-bit Data Rate: 6400 MT/s
CPU 0 runs ./traces/SPEC-CPU2017/416.gamess-875B.champsimtrace.xz
.xz
CPU 0 Bimodal branch predictor
BTB has LRU replacement policy
ITLB has LRU replacement policy
DTLB has LRU replacement policy
STLB has LRU replacement policy
L1I has LRU replacement policy
L1D has LRU replacement policy
L2C has LRU replacement policy
LLC has LRU replacement policy
Heartbeat CPU 0 instructions: 10000002 cycles: 3309440 heartbeat IPC: 3.02166 cumulative IPC: 3.02166 (Simulation time: 0 hr 7 min 30 sec) 
Heartbeat CPU 0 instructions: 20000000 cycles: 6594556 heartbeat IPC: 3.04403 cumulative IPC: 3.0328 (Simulation time: 0 hr 15 min 49 sec) 
Heartbeat CPU 0 instructions: 30000000 cycles: 9937160 heartbeat IPC: 2.99168 cumulative IPC: 3.01897 (Simulation time: 0 hr 22 min 7 sec) 
Heartbeat CPU 0 instructions: 40000000 cycles: 13290263 heartbeat IPC: 2.98231 cumulative IPC: 3.00972 (Simulation time: 0 hr 27 min 51 sec) 
Heartbeat CPU 0 instructions: 50000000 cycles: 16641972 heartbeat IPC: 2.98355 cumulative IPC: 3.00445 (Simulation time: 0 hr 33 min 40 sec) 

Warmup complete CPU 0 instructions: 50000004 cycles: 16641973 (Simulation time: 0 hr 33 min 40 sec) 

Heartbeat CPU 0 instructions: 60000000 cycles: 31496124 heartbeat IPC: 0.673212 cumulative IPC: 0.673212 (Simulation time: 0 hr 35 min 11 sec) 
Heartbeat CPU 0 instructions: 70000000 cycles: 47284736 heartbeat IPC: 0.633368 cumulative IPC: 0.652683 (Simulation time: 0 hr 36 min 50 sec) 
Heartbeat CPU 0 instructions: 80000000 cycles: 63360110 heartbeat IPC: 0.62207 cumulative IPC: 0.642149 (Simulation time: 0 hr 38 min 33 sec) 
Heartbeat CPU 0 instructions: 90000002 cycles: 77622263 heartbeat IPC: 0.701157 cumulative IPC: 0.65595 (Simulation time: 0 hr 40 min 17 sec) 
Heartbeat CPU 0 instructions: 100000000 cycles: 90960109 heartbeat IPC: 0.749746 cumulative IPC: 0.672783 (Simulation time: 0 hr 42 min 3 sec) 
Finished CPU 0 instructions: 50000001 cycles: 74318154 cumulative IPC: 0.672783 (Simulation time: 0 hr 42 min 3 sec) 

ChampSim completed all CPUs

Region of Interest Statistics

CPU 0 cumulative IPC: 0.672783 instructions: 50000001 cycles: 74318154
ITLB TOTAL     ACCESS:    7442230  HIT:    7442225  MISS:          5  HIT %:    99.9999  MISS %: 6.71842e-05   MPKI: 0.0001
ITLB LOAD TRANSLATION ACCESS:    7442230  HIT:    7442225  MISS:          5  HIT %:    99.9999  MISS %: 6.71842e-05   MPKI: 0.0001
ITLB PREFETCH  REQUESTED:          0  ISSUED:          0  USEFUL:          0  USELESS:          0
ITLB USEFUL LOAD PREFETCHES:          0 PREFETCH ISSUED TO LOWER LEVEL:          0  ACCURACY: -nan
ITLB TIMELY PREFETCHES:          0 LATE PREFETCHES: 0 DROPPED PREFETCHES: 0
ITLB PREFETCHES SAME FILL-ORIGIN LEVEL: 0 DIFFERENT FILL-ORIGIN LEVEL: 0
ITLB AVERAGE MISS LATENCY: 282 cycles
ITLB RQ	ACCESS:    9145200	FORWARD:          0	MERGED:    1702969	TO_CACHE:    7442231

DTLB TOTAL     ACCESS:   13201088  HIT:   12816046  MISS:     385042  HIT %:    97.0833  MISS %:    2.91674   MPKI: 7.70084
DTLB LOAD TRANSLATION ACCESS:   13201088  HIT:   12816046  MISS:     385042  HIT %:    97.0833  MISS %:    2.91674   MPKI: 7.70084
DTLB PREFETCH  REQUESTED:          0  ISSUED:          0  USEFUL:          0  USELESS:          0
DTLB USEFUL LOAD PREFETCHES:          0 PREFETCH ISSUED TO LOWER LEVEL:          0  ACCURACY: -nan
DTLB TIMELY PREFETCHES:          0 LATE PREFETCHES: 0 DROPPED PREFETCHES: 0
DTLB PREFETCHES SAME FILL-ORIGIN LEVEL: 0 DIFFERENT FILL-ORIGIN LEVEL: 0
DTLB AVERAGE MISS LATENCY: 9.06114 cycles
DTLB RQ	ACCESS:   16462557	FORWARD:          0	MERGED:    3177553	TO_CACHE:   13285004

STLB TOTAL     ACCESS:    1127115  HIT:    1127101  MISS:         14  HIT %:    99.9988  MISS %: 0.00124211   MPKI: 0.00028
STLB LOAD TRANSLATION ACCESS:     385047  HIT:     385033  MISS:         14  HIT %:    99.9964  MISS %: 0.00363592   MPKI: 0.00028
STLB TRANSLATION FROM L1D PREFETCHER ACCESS:     742068  HIT:     742068  MISS:          0  HIT %:        100  MISS %:          0   MPKI: 0
STLB PREFETCH  REQUESTED:          0  ISSUED:          0  USEFUL:          0  USELESS:          0
STLB USEFUL LOAD PREFETCHES:          0 PREFETCH ISSUED TO LOWER LEVEL:          0  ACCURACY: -nan
STLB TIMELY PREFETCHES:          0 LATE PREFETCHES: 0 DROPPED PREFETCHES: 0
STLB PREFETCHES SAME FILL-ORIGIN LEVEL: 0 DIFFERENT FILL-ORIGIN LEVEL: 0
STLB AVERAGE MISS LATENCY: 256.071 cycles
STLB RQ	ACCESS:    1370795	FORWARD:          0	MERGED:     243680	TO_CACHE:    1127115

STLB Hit, L1D data hit: 0
STLB Hit, L2C data hit: 0
STLB Hit, LLC data hit: 0
STLB Hit, LLC data miss: 0
STLB STLB hints to L2: 0
L1D TOTAL     ACCESS:   17428390  HIT:   17273315  MISS:     155075  HIT %:    99.1102  MISS %:   0.889784   MPKI: 3.1015
L1D LOAD      ACCESS:   10340020  HIT:   10281489  MISS:      58531  HIT %:    99.4339  MISS %:   0.566063   MPKI: 1.17062
L1D RFO       ACCESS:    6106729  HIT:    6086558  MISS:      20171  HIT %:    99.6697  MISS %:   0.330308   MPKI: 0.40342
L1D PREFETCH  ACCESS:     981641  HIT:     905268  MISS:      76373  HIT %:    92.2199  MISS %:    7.78014   MPKI: 1.52746
AGUS PREFETCH L1 MISS: 0
L1D PREFETCH  REQUESTED:    1976280  ISSUED:    1972067  USEFUL:      19777  USELESS:      56682
L1D USEFUL LOAD PREFETCHES:      19777 PREFETCH ISSUED TO LOWER LEVEL:      77970  ACCURACY: 25.3649
L1D TIMELY PREFETCHES:      19777 LATE PREFETCHES: 1525 DROPPED PREFETCHES: 0
L1D PREFETCHES SAME FILL-ORIGIN LEVEL: 77970 DIFFERENT FILL-ORIGIN LEVEL: 0
L1D AVERAGE MISS LATENCY: 15.7121 cycles
L1D RQ	ACCESS:   14592720	FORWARD:          0	MERGED:    4058906	TO_CACHE:   10342168
L1D WQ	ACCESS:    6218191	FORWARD:     192217	MERGED:      97802	TO_CACHE:    6120389
L1D PQ	ACCESS:     986319	FORWARD:          0	MERGED:          0	TO_CACHE:     985748

L1D UNIQUE REGIONS ACCESSED: 0
L1D REGIONS CONFLICTS: 0
L1D Cross Page Prefetch Requests: 156621
L1D Same Page Prefetch Requests: 1994785
L1D ROI Sum of L1D PQ occupancy: 12936225
L1D PREFETCHES PUSHED FROM L2C: 0
L1I TOTAL     ACCESS:    9137563  HIT:    9119282  MISS:      18281  HIT %:    99.7999  MISS %:   0.200064   MPKI: 0.36562
L1I LOAD      ACCESS:    9137563  HIT:    9119282  MISS:      18281  HIT %:    99.7999  MISS %:   0.200064   MPKI: 0.36562
L1I PREFETCH  REQUESTED:          0  ISSUED:          0  USEFUL:          0  USELESS:          0
L1I USEFUL LOAD PREFETCHES:          0 PREFETCH ISSUED TO LOWER LEVEL:          0  ACCURACY: -nan
L1I TIMELY PREFETCHES:          0 LATE PREFETCHES: 0 DROPPED PREFETCHES: 0
L1I PREFETCHES SAME FILL-ORIGIN LEVEL: 0 DIFFERENT FILL-ORIGIN LEVEL: 0
L1I AVERAGE MISS LATENCY: 14.0666 cycles
L1I RQ	ACCESS:   13199938	FORWARD:          0	MERGED:    4054738	TO_CACHE:    9145200

BTB TOTAL     ACCESS:    3547327  HIT:    3486116  MISS:      61211  HIT %:    98.2744  MISS %:    1.72555   MPKI: 1.22422
BTB BRANCH_DIRECT_JUMP	ACCESS:     372093  HIT:     371941  MISS:        152
BTB BRANCH_INDIRECT	ACCESS:      86577  HIT:      57914  MISS:      28663
BTB BRANCH_CONDITIONAL	ACCESS:    2508752  HIT:    2508344  MISS:        408
BTB BRANCH_DIRECT_CALL	ACCESS:     289953  HIT:     289892  MISS:         61
BTB BRANCH_INDIRECT_CALL	ACCESS:          0  HIT:          0  MISS:          0
BTB BRANCH_RETURN	ACCESS:     289952  HIT:     258025  MISS:      31927
BTB BRANCH_OTHER ACCESS:          0  HIT:          0  MISS:          0

L2C TOTAL     ACCESS:     197960  HIT:     197284  MISS:        676  HIT %:    99.6585  MISS %:   0.341483   MPKI: 0.01352
L2C LOAD      ACCESS:      75286  HIT:      75085  MISS:        201  HIT %:     99.733  MISS %:   0.266982   MPKI: 0.00402
L2C DATA LOAD MPKI: 0.0014
L2C INSTRUCTION LOAD MPKI: 0.00262
L2C RFO       ACCESS:      20062  HIT:      20025  MISS:         37  HIT %:    99.8156  MISS %:   0.184428   MPKI: 0.00074
L2C PREFETCH  ACCESS:      77969  HIT:      77538  MISS:        431  HIT %:    99.4472  MISS %:   0.552784   MPKI: 0.00862
AGUS PREFETCH L1 MISS: 0
L2C DATA PREFETCH MPKI: 0.00862
L2C INSTRUCTION PREFETCH MPKI: 0
L2C WRITEBACK ACCESS:      24629  HIT:      24629  MISS:          0  HIT %:        100  MISS %:          0   MPKI: 0
L2C LOAD TRANSLATION ACCESS:         14  HIT:          7  MISS:          7  HIT %:         50  MISS %:         50   MPKI: 0.00014
L2C PREFETCH  REQUESTED:          0  ISSUED:          0  USEFUL:        229  USELESS:          1
L2C USEFUL LOAD PREFETCHES:        229 PREFETCH ISSUED TO LOWER LEVEL:        431  ACCURACY: 53.1323
L2C TIMELY PREFETCHES:        229 LATE PREFETCHES: 0 DROPPED PREFETCHES: 0
L2C PREFETCHES SAME FILL-ORIGIN LEVEL: 0 DIFFERENT FILL-ORIGIN LEVEL: 0
L2C AVERAGE MISS LATENCY: 176.47 cycles
L2C RQ	ACCESS:      95400	FORWARD:          0	MERGED:          0	TO_CACHE:      95362
L2C WQ	ACCESS:      24629	FORWARD:         39	MERGED:          0	TO_CACHE:      24629
L2C PQ	ACCESS:      77970	FORWARD:          0	MERGED:          0	TO_CACHE:      77969

L2C Instructions Evicting Data 0
L2C Translations Evicting Data 0
L2C Data Evicting Data 2
L2C Instructions Evicting Instructions 0
L2C Translations Evicting Instructions 0
L2C Data Evicting Instructions 2
L2C Instructions Evicting Translations 0
L2C Translations Evicting Translations 0
L2C Data Evicting Translations 0
L2C Dense regions hint from L2: 0
PSCL5 TOTAL     ACCESS:         14  HIT:         14  MISS:          0  HIT %:        100  MISS %:          0   MPKI: 0
PSCL5 LOAD TRANSLATION ACCESS:         14  HIT:         14  MISS:          0  HIT %:        100  MISS %:          0   MPKI: 0
PSCL5 PREFETCH  REQUESTED:          0  ISSUED:          0  USEFUL:          0  USELESS:          0
PSCL5 USEFUL LOAD PREFETCHES:          0 PREFETCH ISSUED TO LOWER LEVEL:          0  ACCURACY: -nan
PSCL5 TIMELY PREFETCHES:          0 LATE PREFETCHES: 0 DROPPED PREFETCHES: 0
PSCL5 PREFETCHES SAME FILL-ORIGIN LEVEL: 0 DIFFERENT FILL-ORIGIN LEVEL: 0

PSCL4 TOTAL     ACCESS:         14  HIT:         14  MISS:          0  HIT %:        100  MISS %:          0   MPKI: 0
PSCL4 LOAD TRANSLATION ACCESS:         14  HIT:         14  MISS:          0  HIT %:        100  MISS %:          0   MPKI: 0
PSCL4 PREFETCH  REQUESTED:          0  ISSUED:          0  USEFUL:          0  USELESS:          0
PSCL4 USEFUL LOAD PREFETCHES:          0 PREFETCH ISSUED TO LOWER LEVEL:          0  ACCURACY: -nan
PSCL4 TIMELY PREFETCHES:          0 LATE PREFETCHES: 0 DROPPED PREFETCHES: 0
PSCL4 PREFETCHES SAME FILL-ORIGIN LEVEL: 0 DIFFERENT FILL-ORIGIN LEVEL: 0

PSCL3 TOTAL     ACCESS:         14  HIT:         14  MISS:          0  HIT %:        100  MISS %:          0   MPKI: 0
PSCL3 LOAD TRANSLATION ACCESS:         14  HIT:         14  MISS:          0  HIT %:        100  MISS %:          0   MPKI: 0
PSCL3 PREFETCH  REQUESTED:          0  ISSUED:          0  USEFUL:          0  USELESS:          0
PSCL3 USEFUL LOAD PREFETCHES:          0 PREFETCH ISSUED TO LOWER LEVEL:          0  ACCURACY: -nan
PSCL3 TIMELY PREFETCHES:          0 LATE PREFETCHES: 0 DROPPED PREFETCHES: 0
PSCL3 PREFETCHES SAME FILL-ORIGIN LEVEL: 0 DIFFERENT FILL-ORIGIN LEVEL: 0

PSCL2 TOTAL     ACCESS:         14  HIT:         14  MISS:          0  HIT %:        100  MISS %:          0   MPKI: 0
PSCL2 LOAD TRANSLATION ACCESS:         14  HIT:         14  MISS:          0  HIT %:        100  MISS %:          0   MPKI: 0
PSCL2 PREFETCH  REQUESTED:          0  ISSUED:          0  USEFUL:          0  USELESS:          0
PSCL2 USEFUL LOAD PREFETCHES:          0 PREFETCH ISSUED TO LOWER LEVEL:          0  ACCURACY: -nan
PSCL2 TIMELY PREFETCHES:          0 LATE PREFETCHES: 0 DROPPED PREFETCHES: 0
PSCL2 PREFETCHES SAME FILL-ORIGIN LEVEL: 0 DIFFERENT FILL-ORIGIN LEVEL: 0

LLC TOTAL     ACCESS:        676  HIT:          2  MISS:        674  HIT %:   0.295858  MISS %:    99.7041   MPKI: 0.01348
LLC LOAD      ACCESS:        201  HIT:          2  MISS:        199  HIT %:   0.995025  MISS %:     99.005   MPKI: 0.00398
LLC RFO       ACCESS:         37  HIT:          0  MISS:         37  HIT %:          0  MISS %:        100   MPKI: 0.00074
LLC PREFETCH  ACCESS:        431  HIT:          0  MISS:        431  HIT %:          0  MISS %:        100   MPKI: 0.00862
AGUS PREFETCH L1 MISS: 0
LLC LOAD TRANSLATION ACCESS:          7  HIT:          0  MISS:          7  HIT %:          0  MISS %:        100   MPKI: 0.00014
LLC PREFETCH  REQUESTED:          0  ISSUED:          0  USEFUL:          1  USELESS:          0
LLC USEFUL LOAD PREFETCHES:          1 PREFETCH ISSUED TO LOWER LEVEL:        431  ACCURACY: 0.232019
LLC TIMELY PREFETCHES:          1 LATE PREFETCHES: 0 DROPPED PREFETCHES: 0
LLC PREFETCHES SAME FILL-ORIGIN LEVEL: 0 DIFFERENT FILL-ORIGIN LEVEL: 0
LLC AVERAGE MISS LATENCY: 146.635 cycles
LLC RQ	ACCESS:        245	FORWARD:          0	MERGED:          0	TO_CACHE:        245
LLC PQ	ACCESS:        431	FORWARD:          0	MERGED:          0	TO_CACHE:        431

LLC Dense regions hint to LLC: 0

RAW hits: 1471660
Loads Generated: 16064387
Loads sent to L1D: 14592720
Stores Generated: 6218182
Stores sent to L1D: 6218191
Major fault: 0 Minor fault: 187
Allocated PAGES: 187

stream: 
stream:times selected: 2127981
stream:pref_reqs: 2038428
stream:pref_reqs_filtered_out: 947856
stream:pref_filled: 50295
stream:pref_useful: 13482
stream:pref_late: 788
stream:misses: 238
stream:misses_by_poll: 0

CS: 
CS:times selected: 79943
CS:pref_reqs: 95189
CS:pref_reqs_filtered_out: 77865
CS:pref_filled: 668
CS:pref_useful: 157
CS:pref_late: 2
CS:misses: 3
CS:misses_by_poll: 0

CPLX: 
CPLX:times selected: 2113547
CPLX:pref_reqs: 1397424
CPLX:pref_reqs_filtered_out: 843196
CPLX:pref_filled: 42463
CPLX:pref_useful: 3905
CPLX:pref_late: 69
CPLX:misses: 1725
CPLX:misses_by_poll: 48

ISB: 
ISB:total access:19894269
ISB:times selected:2913784
ISB:canary counter:0
ISB:pref_reqs: 1753807
ISB:pref_reqs_filtered_out: 1253980
ISB:pref_filled: 44516
ISB:pref_useful: 16989
ISB:pref_late: 251
ISB:misses: 26642
ISB:misses_by_poll: 37
ISB:Stream end: 1350954
ISB:No Prediction: 16980485 85.3537
ISB:No translation: 1378089239
ISB:Predictions: 492746 2.47682

NL_L1: 
NL:times selected: 5797
NL:pref_reqs: 5797
NL:pref_reqs_filtered_out: 1632
NL:pref_filled: 124
NL:pref_useful: 43
NL:pref_late: 2
NL:misses: 43
NL:misses_by_poll: 0

Coverage: 25.2554
total selections: 7241052
total_filled: 76373
total_useful: 19777
total_late: 1645
total_polluted: 85
total_misses_after_warmup: 60678
conflicts: 4580762

test: 0
ISB Prefetcher final stats
Prefetcher final stats
Training Unit Size: 524
Addr table size: 1803 1845
Triggers: 19894269
Structural address exists: 2913784 14.6463
No Prediction: 16980485 85.3537
Prefetches issued: 492746 2.47682
Stream end: 1350954
No translation: 1378089239
%Stream divergence: 16806 0.0844766
Stream divergence -- new stream: 0
A: 0
B: 0
C: 2127987
D: 2127987
E: 2127987
F: 0
G: 0

DRAM Statistics
 CHANNEL 0
 RQ ROW_BUFFER_HIT:        173  ROW_BUFFER_MISS:        501
 DBUS_CONGESTED:          0
 WQ ROW_BUFFER_HIT:          0  ROW_BUFFER_MISS:          0  FULL:          0

 AVG_CONGESTED_CYCLE: -
 All warmup complete: 2
Channel 0 Bank busy for read cycles: 0
Channel 0 Bank busy for write cycles: 0
Channel 0
Rank 0
0banks busy for read cycles: 74244137
0banks busy for write cycles: 0
1banks busy for read cycles: 66356
1banks busy for write cycles: 0
2banks busy for read cycles: 6111
2banks busy for write cycles: 0
3banks busy for read cycles: 1132
3banks busy for write cycles: 0
4banks busy for read cycles: 285
4banks busy for write cycles: 0
5banks busy for read cycles: 118
5banks busy for write cycles: 0
6banks busy for read cycles: 16
6banks busy for write cycles: 0
7banks busy for read cycles: 0
7banks busy for write cycles: 0
8banks busy for read cycles: 0
8banks busy for write cycles: 0

CPU 0 Branch Prediction Accuracy: 92.7137% MPKI: 6.85088 Average ROB Occupancy at Mispredict: 72.5349
Branch types
NOT_BRANCH: 45298634 90.5973%
BRANCH_DIRECT_JUMP: 372093 0.744186%
BRANCH_INDIRECT: 86577 0.173154%
BRANCH_CONDITIONAL: 3662630 7.32526%
BRANCH_DIRECT_CALL: 289953 0.579906%
BRANCH_INDIRECT_CALL: 0 0%
BRANCH_RETURN: 289952 0.579904%
BRANCH_OTHER: 0 0%

DRAM PAGES: 1048576
Allocated PAGES: 187
