
*** ChampSim Multicore Out-of-Order Simulator ***

Warmup Instructions: 50000000
Simulation Instructions: 50000000
Number of CPUs: 1
LLC sets: 2048
LLC ways: 16
Off-chip DRAM Size: 4096 MB Channels: 1 Width: 64-bit Data Rate: 6400 MT/s
CPU 0 runs ./traces/SPEC-CPU2017/416.gamess-875B.champsimtrace.xz
.xz
CPU 0 Bimodal branch predictor
BTB has LRU replacement policy
ITLB has LRU replacement policy
DTLB has LRU replacement policy
STLB has LRU replacement policy
L1I has LRU replacement policy
L1D has LRU replacement policy
L2C has LRU replacement policy
LLC has LRU replacement policy
Heartbeat CPU 0 instructions: 10000002 cycles: 3309685 heartbeat IPC: 3.02144 cumulative IPC: 3.02144 (Simulation time: 0 hr 12 min 38 sec) 
Heartbeat CPU 0 instructions: 20000000 cycles: 6594942 heartbeat IPC: 3.0439 cumulative IPC: 3.03263 (Simulation time: 0 hr 25 min 55 sec) 
Heartbeat CPU 0 instructions: 30000000 cycles: 9937671 heartbeat IPC: 2.99157 cumulative IPC: 3.01882 (Simulation time: 0 hr 39 min 19 sec) 
Heartbeat CPU 0 instructions: 40000000 cycles: 13290833 heartbeat IPC: 2.98226 cumulative IPC: 3.00959 (Simulation time: 0 hr 53 min 1 sec) 
Heartbeat CPU 0 instructions: 50000000 cycles: 16642575 heartbeat IPC: 2.98352 cumulative IPC: 3.00434 (Simulation time: 1 hr 3 min 16 sec) 

Warmup complete CPU 0 instructions: 50000004 cycles: 16642576 (Simulation time: 1 hr 3 min 16 sec) 

Heartbeat CPU 0 instructions: 60000000 cycles: 31496983 heartbeat IPC: 0.673201 cumulative IPC: 0.673201 (Simulation time: 1 hr 4 min 51 sec) 
Heartbeat CPU 0 instructions: 70000000 cycles: 47284880 heartbeat IPC: 0.633397 cumulative IPC: 0.652692 (Simulation time: 1 hr 6 min 22 sec) 
Heartbeat CPU 0 instructions: 80000000 cycles: 63360746 heartbeat IPC: 0.62205 cumulative IPC: 0.642148 (Simulation time: 1 hr 7 min 52 sec) 
Heartbeat CPU 0 instructions: 90000002 cycles: 77622545 heartbeat IPC: 0.701174 cumulative IPC: 0.655953 (Simulation time: 1 hr 9 min 26 sec) 
Heartbeat CPU 0 instructions: 100000000 cycles: 90960446 heartbeat IPC: 0.749743 cumulative IPC: 0.672786 (Simulation time: 1 hr 10 min 57 sec) 
Finished CPU 0 instructions: 50000001 cycles: 74317888 cumulative IPC: 0.672786 (Simulation time: 1 hr 10 min 57 sec) 

ChampSim completed all CPUs

Region of Interest Statistics

CPU 0 cumulative IPC: 0.672786 instructions: 50000001 cycles: 74317888
ITLB TOTAL     ACCESS:    7442191  HIT:    7442186  MISS:          5  HIT %:    99.9999  MISS %: 6.71845e-05   MPKI: 0.0001
ITLB LOAD TRANSLATION ACCESS:    7442191  HIT:    7442186  MISS:          5  HIT %:    99.9999  MISS %: 6.71845e-05   MPKI: 0.0001
ITLB PREFETCH  REQUESTED:          0  ISSUED:          0  USEFUL:          0  USELESS:          0
ITLB USEFUL LOAD PREFETCHES:          0 PREFETCH ISSUED TO LOWER LEVEL:          0  ACCURACY: -nan
ITLB TIMELY PREFETCHES:          0 LATE PREFETCHES: 0 DROPPED PREFETCHES: 0
ITLB PREFETCHES SAME FILL-ORIGIN LEVEL: 0 DIFFERENT FILL-ORIGIN LEVEL: 0
ITLB AVERAGE MISS LATENCY: 282 cycles
ITLB RQ	ACCESS:    9145161	FORWARD:          0	MERGED:    1702969	TO_CACHE:    7442192

DTLB TOTAL     ACCESS:   13201192  HIT:   12816142  MISS:     385050  HIT %:    97.0832  MISS %:    2.91678   MPKI: 7.701
DTLB LOAD TRANSLATION ACCESS:   13201192  HIT:   12816142  MISS:     385050  HIT %:    97.0832  MISS %:    2.91678   MPKI: 7.701
DTLB PREFETCH  REQUESTED:          0  ISSUED:          0  USEFUL:          0  USELESS:          0
DTLB USEFUL LOAD PREFETCHES:          0 PREFETCH ISSUED TO LOWER LEVEL:          0  ACCURACY: -nan
DTLB TIMELY PREFETCHES:          0 LATE PREFETCHES: 0 DROPPED PREFETCHES: 0
DTLB PREFETCHES SAME FILL-ORIGIN LEVEL: 0 DIFFERENT FILL-ORIGIN LEVEL: 0
DTLB AVERAGE MISS LATENCY: 9.07357 cycles
DTLB RQ	ACCESS:   16462609	FORWARD:          0	MERGED:    3177499	TO_CACHE:   13285110

STLB TOTAL     ACCESS:     917988  HIT:     917974  MISS:         14  HIT %:    99.9985  MISS %: 0.00152507   MPKI: 0.00028
STLB LOAD TRANSLATION ACCESS:     385055  HIT:     385041  MISS:         14  HIT %:    99.9964  MISS %: 0.00363584   MPKI: 0.00028
STLB TRANSLATION FROM L1D PREFETCHER ACCESS:     532933  HIT:     532933  MISS:          0  HIT %:        100  MISS %:          0   MPKI: 0
STLB PREFETCH  REQUESTED:          0  ISSUED:          0  USEFUL:          0  USELESS:          0
STLB USEFUL LOAD PREFETCHES:          0 PREFETCH ISSUED TO LOWER LEVEL:          0  ACCURACY: -nan
STLB TIMELY PREFETCHES:          0 LATE PREFETCHES: 0 DROPPED PREFETCHES: 0
STLB PREFETCHES SAME FILL-ORIGIN LEVEL: 0 DIFFERENT FILL-ORIGIN LEVEL: 0
STLB AVERAGE MISS LATENCY: 256.071 cycles
STLB RQ	ACCESS:    1144657	FORWARD:          0	MERGED:     226669	TO_CACHE:     917988

STLB Hit, L1D data hit: 0
STLB Hit, L2C data hit: 0
STLB Hit, LLC data hit: 0
STLB Hit, LLC data miss: 0
STLB STLB hints to L2: 0
L1D TOTAL     ACCESS:   17204016  HIT:   17052342  MISS:     151674  HIT %:    99.1184  MISS %:    0.88162   MPKI: 3.03348
L1D LOAD      ACCESS:   10340070  HIT:   10279440  MISS:      60630  HIT %:    99.4136  MISS %:    0.58636   MPKI: 1.2126
L1D RFO       ACCESS:    6107730  HIT:    6088378  MISS:      19352  HIT %:    99.6832  MISS %:   0.316844   MPKI: 0.38704
L1D PREFETCH  ACCESS:     756216  HIT:     684524  MISS:      71692  HIT %:    90.5196  MISS %:    9.48036   MPKI: 1.43384
AGUS PREFETCH L1 MISS: 0
L1D PREFETCH  REQUESTED:    1525410  ISSUED:    1519717  USEFUL:      15796  USELESS:      55973
L1D USEFUL LOAD PREFETCHES:      15796 PREFETCH ISSUED TO LOWER LEVEL:      73089  ACCURACY: 21.612
L1D TIMELY PREFETCHES:      15796 LATE PREFETCHES: 1332 DROPPED PREFETCHES: 0
L1D PREFETCHES SAME FILL-ORIGIN LEVEL: 73089 DIFFERENT FILL-ORIGIN LEVEL: 0
L1D AVERAGE MISS LATENCY: 15.7811 cycles
L1D RQ	ACCESS:   14592843	FORWARD:          0	MERGED:    4059021	TO_CACHE:   10342210
L1D WQ	ACCESS:    6218191	FORWARD:     192125	MERGED:      97792	TO_CACHE:    6120399
L1D PQ	ACCESS:     760115	FORWARD:          0	MERGED:          0	TO_CACHE:     759602

L1D UNIQUE REGIONS ACCESSED: 0
L1D REGIONS CONFLICTS: 0
L1D Cross Page Prefetch Requests: 85309
L1D Same Page Prefetch Requests: 1637606
L1D ROI Sum of L1D PQ occupancy: 10054716
L1D PREFETCHES PUSHED FROM L2C: 0
L1I TOTAL     ACCESS:    9137525  HIT:    9119244  MISS:      18281  HIT %:    99.7999  MISS %:   0.200065   MPKI: 0.36562
L1I LOAD      ACCESS:    9137525  HIT:    9119244  MISS:      18281  HIT %:    99.7999  MISS %:   0.200065   MPKI: 0.36562
L1I PREFETCH  REQUESTED:          0  ISSUED:          0  USEFUL:          0  USELESS:          0
L1I USEFUL LOAD PREFETCHES:          0 PREFETCH ISSUED TO LOWER LEVEL:          0  ACCURACY: -nan
L1I TIMELY PREFETCHES:          0 LATE PREFETCHES: 0 DROPPED PREFETCHES: 0
L1I PREFETCHES SAME FILL-ORIGIN LEVEL: 0 DIFFERENT FILL-ORIGIN LEVEL: 0
L1I AVERAGE MISS LATENCY: 14.0994 cycles
L1I RQ	ACCESS:   13199827	FORWARD:          0	MERGED:    4054666	TO_CACHE:    9145161

BTB TOTAL     ACCESS:    3547327  HIT:    3486116  MISS:      61211  HIT %:    98.2744  MISS %:    1.72555   MPKI: 1.22422
BTB BRANCH_DIRECT_JUMP	ACCESS:     372093  HIT:     371941  MISS:        152
BTB BRANCH_INDIRECT	ACCESS:      86577  HIT:      57914  MISS:      28663
BTB BRANCH_CONDITIONAL	ACCESS:    2508752  HIT:    2508344  MISS:        408
BTB BRANCH_DIRECT_CALL	ACCESS:     289953  HIT:     289892  MISS:         61
BTB BRANCH_INDIRECT_CALL	ACCESS:          0  HIT:          0  MISS:          0
BTB BRANCH_RETURN	ACCESS:     289952  HIT:     258025  MISS:      31927
BTB BRANCH_OTHER ACCESS:          0  HIT:          0  MISS:          0

L2C TOTAL     ACCESS:     193506  HIT:     192808  MISS:        698  HIT %:    99.6393  MISS %:   0.360712   MPKI: 0.01396
L2C LOAD      ACCESS:      77577  HIT:      77378  MISS:        199  HIT %:    99.7435  MISS %:   0.256519   MPKI: 0.00398
L2C DATA LOAD MPKI: 0.00136
L2C INSTRUCTION LOAD MPKI: 0.00262
L2C RFO       ACCESS:      19254  HIT:      19219  MISS:         35  HIT %:    99.8182  MISS %:    0.18178   MPKI: 0.0007
L2C PREFETCH  ACCESS:      73089  HIT:      72632  MISS:        457  HIT %:    99.3747  MISS %:   0.625265   MPKI: 0.00914
AGUS PREFETCH L1 MISS: 0
L2C DATA PREFETCH MPKI: 0.00914
L2C INSTRUCTION PREFETCH MPKI: 0
L2C WRITEBACK ACCESS:      23572  HIT:      23572  MISS:          0  HIT %:        100  MISS %:          0   MPKI: 0
L2C LOAD TRANSLATION ACCESS:         14  HIT:          7  MISS:          7  HIT %:         50  MISS %:         50   MPKI: 0.00014
L2C PREFETCH  REQUESTED:          0  ISSUED:          0  USEFUL:        227  USELESS:          2
L2C USEFUL LOAD PREFETCHES:        227 PREFETCH ISSUED TO LOWER LEVEL:        457  ACCURACY: 49.6718
L2C TIMELY PREFETCHES:        227 LATE PREFETCHES: 0 DROPPED PREFETCHES: 0
L2C PREFETCHES SAME FILL-ORIGIN LEVEL: 0 DIFFERENT FILL-ORIGIN LEVEL: 0
L2C AVERAGE MISS LATENCY: 178.695 cycles
L2C RQ	ACCESS:      96880	FORWARD:          0	MERGED:          0	TO_CACHE:      96845
L2C WQ	ACCESS:      23572	FORWARD:         35	MERGED:          0	TO_CACHE:      23572
L2C PQ	ACCESS:      73089	FORWARD:          0	MERGED:          0	TO_CACHE:      73089

L2C Instructions Evicting Data 0
L2C Translations Evicting Data 0
L2C Data Evicting Data 3
L2C Instructions Evicting Instructions 0
L2C Translations Evicting Instructions 0
L2C Data Evicting Instructions 4
L2C Instructions Evicting Translations 0
L2C Translations Evicting Translations 0
L2C Data Evicting Translations 0
L2C Dense regions hint from L2: 0
PSCL5 TOTAL     ACCESS:         14  HIT:         14  MISS:          0  HIT %:        100  MISS %:          0   MPKI: 0
PSCL5 LOAD TRANSLATION ACCESS:         14  HIT:         14  MISS:          0  HIT %:        100  MISS %:          0   MPKI: 0
PSCL5 PREFETCH  REQUESTED:          0  ISSUED:          0  USEFUL:          0  USELESS:          0
PSCL5 USEFUL LOAD PREFETCHES:          0 PREFETCH ISSUED TO LOWER LEVEL:          0  ACCURACY: -nan
PSCL5 TIMELY PREFETCHES:          0 LATE PREFETCHES: 0 DROPPED PREFETCHES: 0
PSCL5 PREFETCHES SAME FILL-ORIGIN LEVEL: 0 DIFFERENT FILL-ORIGIN LEVEL: 0

PSCL4 TOTAL     ACCESS:         14  HIT:         14  MISS:          0  HIT %:        100  MISS %:          0   MPKI: 0
PSCL4 LOAD TRANSLATION ACCESS:         14  HIT:         14  MISS:          0  HIT %:        100  MISS %:          0   MPKI: 0
PSCL4 PREFETCH  REQUESTED:          0  ISSUED:          0  USEFUL:          0  USELESS:          0
PSCL4 USEFUL LOAD PREFETCHES:          0 PREFETCH ISSUED TO LOWER LEVEL:          0  ACCURACY: -nan
PSCL4 TIMELY PREFETCHES:          0 LATE PREFETCHES: 0 DROPPED PREFETCHES: 0
PSCL4 PREFETCHES SAME FILL-ORIGIN LEVEL: 0 DIFFERENT FILL-ORIGIN LEVEL: 0

PSCL3 TOTAL     ACCESS:         14  HIT:         14  MISS:          0  HIT %:        100  MISS %:          0   MPKI: 0
PSCL3 LOAD TRANSLATION ACCESS:         14  HIT:         14  MISS:          0  HIT %:        100  MISS %:          0   MPKI: 0
PSCL3 PREFETCH  REQUESTED:          0  ISSUED:          0  USEFUL:          0  USELESS:          0
PSCL3 USEFUL LOAD PREFETCHES:          0 PREFETCH ISSUED TO LOWER LEVEL:          0  ACCURACY: -nan
PSCL3 TIMELY PREFETCHES:          0 LATE PREFETCHES: 0 DROPPED PREFETCHES: 0
PSCL3 PREFETCHES SAME FILL-ORIGIN LEVEL: 0 DIFFERENT FILL-ORIGIN LEVEL: 0

PSCL2 TOTAL     ACCESS:         14  HIT:         14  MISS:          0  HIT %:        100  MISS %:          0   MPKI: 0
PSCL2 LOAD TRANSLATION ACCESS:         14  HIT:         14  MISS:          0  HIT %:        100  MISS %:          0   MPKI: 0
PSCL2 PREFETCH  REQUESTED:          0  ISSUED:          0  USEFUL:          0  USELESS:          0
PSCL2 USEFUL LOAD PREFETCHES:          0 PREFETCH ISSUED TO LOWER LEVEL:          0  ACCURACY: -nan
PSCL2 TIMELY PREFETCHES:          0 LATE PREFETCHES: 0 DROPPED PREFETCHES: 0
PSCL2 PREFETCHES SAME FILL-ORIGIN LEVEL: 0 DIFFERENT FILL-ORIGIN LEVEL: 0

LLC TOTAL     ACCESS:        698  HIT:          3  MISS:        695  HIT %:   0.429799  MISS %:    99.5702   MPKI: 0.0139
LLC LOAD      ACCESS:        199  HIT:          2  MISS:        197  HIT %:    1.00503  MISS %:     98.995   MPKI: 0.00394
LLC RFO       ACCESS:         35  HIT:          0  MISS:         35  HIT %:          0  MISS %:        100   MPKI: 0.0007
LLC PREFETCH  ACCESS:        457  HIT:          1  MISS:        456  HIT %:   0.218818  MISS %:    99.7812   MPKI: 0.00912
AGUS PREFETCH L1 MISS: 0
LLC LOAD TRANSLATION ACCESS:          7  HIT:          0  MISS:          7  HIT %:          0  MISS %:        100   MPKI: 0.00014
LLC PREFETCH  REQUESTED:          0  ISSUED:          0  USEFUL:          1  USELESS:          0
LLC USEFUL LOAD PREFETCHES:          1 PREFETCH ISSUED TO LOWER LEVEL:        456  ACCURACY: 0.219298
LLC TIMELY PREFETCHES:          1 LATE PREFETCHES: 0 DROPPED PREFETCHES: 0
LLC PREFETCHES SAME FILL-ORIGIN LEVEL: 0 DIFFERENT FILL-ORIGIN LEVEL: 0
LLC AVERAGE MISS LATENCY: 149.075 cycles
LLC RQ	ACCESS:        241	FORWARD:          0	MERGED:          0	TO_CACHE:        241
LLC PQ	ACCESS:        457	FORWARD:          0	MERGED:          0	TO_CACHE:        457

LLC Dense regions hint to LLC: 0

RAW hits: 1471537
Loads Generated: 16064387
Loads sent to L1D: 14592843
Stores Generated: 6218182
Stores sent to L1D: 6218191
Major fault: 0 Minor fault: 187
Allocated PAGES: 187

stream: 
stream:times selected: 2128153
stream:pref_reqs: 2046617
stream:pref_reqs_filtered_out: 999076
stream:pref_filled: 48316
stream:pref_useful: 12987
stream:pref_late: 743
stream:misses: 2254
stream:misses_by_poll: 0

CS: 
CS:times selected: 78351
CS:pref_reqs: 90726
CS:pref_reqs_filtered_out: 76027
CS:pref_filled: 655
CS:pref_useful: 146
CS:pref_late: 0
CS:misses: 13
CS:misses_by_poll: 0

CPLX: 
CPLX:times selected: 2115115
CPLX:pref_reqs: 1326689
CPLX:pref_reqs_filtered_out: 818769
CPLX:pref_filled: 41994
CPLX:pref_useful: 3656
CPLX:pref_late: 60
CPLX:misses: 14240
CPLX:misses_by_poll: 39

ISB: 
ISB:total access:9994961
ISB:times selected:476156
ISB:canary counter:0
ISB:pref_reqs: 363380
ISB:pref_reqs_filtered_out: 201908
ISB:pref_filled: 34086
ISB:pref_useful: 9657
ISB:pref_late: 217
ISB:misses: 4666
ISB:misses_by_poll: 18
ISB:Stream end: 465251
ISB:No Prediction: 9518805 95.236
ISB:No translation: 474519438 4747.59
ISB:Predictions: 158933 1.59013

NL_L1: 
NL:times selected: 7163
NL:pref_reqs: 7163
NL:pref_reqs_filtered_out: 2578
NL:pref_filled: 130
NL:pref_useful: 39
NL:pref_late: 2
NL:misses: 48
NL:misses_by_poll: 0

Coverage: 20.6684
total selections: 4804938
total_filled: 71692
total_useful: 15796
total_late: 1416
total_polluted: 57
total_misses_after_warmup: 62769
conflicts: 4580804

test: 0
Prefetcher final stats
Training Unit Size: 126
Addr table size: 1455 1468
Stream divergence: 7142 0.071456
Stream divergence -- new stream: 0
--------------------------Training unit table ------------------------

DRAM Statistics
 CHANNEL 0
 RQ ROW_BUFFER_HIT:        163  ROW_BUFFER_MISS:        532
 DBUS_CONGESTED:          0
 WQ ROW_BUFFER_HIT:          0  ROW_BUFFER_MISS:          0  FULL:          0

 AVG_CONGESTED_CYCLE: -
 All warmup complete: 2
Channel 0 Bank busy for read cycles: 0
Channel 0 Bank busy for write cycles: 0
Channel 0
Rank 0
0banks busy for read cycles: 74239753
0banks busy for write cycles: 0
1banks busy for read cycles: 70134
1banks busy for write cycles: 0
2banks busy for read cycles: 6757
2banks busy for write cycles: 0
3banks busy for read cycles: 828
3banks busy for write cycles: 0
4banks busy for read cycles: 283
4banks busy for write cycles: 0
5banks busy for read cycles: 118
5banks busy for write cycles: 0
6banks busy for read cycles: 16
6banks busy for write cycles: 0
7banks busy for read cycles: 0
7banks busy for write cycles: 0
8banks busy for read cycles: 0
8banks busy for write cycles: 0

CPU 0 Branch Prediction Accuracy: 92.7137% MPKI: 6.85088 Average ROB Occupancy at Mispredict: 72.5412
Branch types
NOT_BRANCH: 45298634 90.5973%
BRANCH_DIRECT_JUMP: 372093 0.744186%
BRANCH_INDIRECT: 86577 0.173154%
BRANCH_CONDITIONAL: 3662630 7.32526%
BRANCH_DIRECT_CALL: 289953 0.579906%
BRANCH_INDIRECT_CALL: 0 0%
BRANCH_RETURN: 289952 0.579904%
BRANCH_OTHER: 0 0%

DRAM PAGES: 1048576
Allocated PAGES: 187
