
*** ChampSim Multicore Out-of-Order Simulator ***

Warmup Instructions: 50000000
Simulation Instructions: 50000000
Number of CPUs: 1
LLC sets: 2048
LLC ways: 16
Off-chip DRAM Size: 4096 MB Channels: 1 Width: 64-bit Data Rate: 6400 MT/s
CPU 0 runs ./traces/SPEC-CPU2017/416.gamess-875B.champsimtrace.xz
.xz
CPU 0 Bimodal branch predictor
BTB has LRU replacement policy
ITLB has LRU replacement policy
DTLB has LRU replacement policy
STLB has LRU replacement policy
L1I has LRU replacement policy
L1D has LRU replacement policy
L2C has LRU replacement policy
LLC has LRU replacement policy
Heartbeat CPU 0 instructions: 10000002 cycles: 3309406 heartbeat IPC: 3.02169 cumulative IPC: 3.02169 (Simulation time: 0 hr 1 min 4 sec) 
Heartbeat CPU 0 instructions: 20000000 cycles: 6594389 heartbeat IPC: 3.04416 cumulative IPC: 3.03288 (Simulation time: 0 hr 2 min 19 sec) 
Heartbeat CPU 0 instructions: 30000000 cycles: 9936835 heartbeat IPC: 2.99182 cumulative IPC: 3.01907 (Simulation time: 0 hr 3 min 27 sec) 
Heartbeat CPU 0 instructions: 40000000 cycles: 13289473 heartbeat IPC: 2.98273 cumulative IPC: 3.0099 (Simulation time: 0 hr 4 min 30 sec) 
Heartbeat CPU 0 instructions: 50000000 cycles: 16640501 heartbeat IPC: 2.98416 cumulative IPC: 3.00472 (Simulation time: 0 hr 5 min 34 sec) 

Warmup complete CPU 0 instructions: 50000004 cycles: 16640502 (Simulation time: 0 hr 5 min 34 sec) 

Heartbeat CPU 0 instructions: 60000000 cycles: 31489572 heartbeat IPC: 0.673443 cumulative IPC: 0.673443 (Simulation time: 0 hr 6 min 54 sec) 
Heartbeat CPU 0 instructions: 70000000 cycles: 47274849 heartbeat IPC: 0.633502 cumulative IPC: 0.652862 (Simulation time: 0 hr 8 min 14 sec) 
Heartbeat CPU 0 instructions: 80000000 cycles: 63346466 heartbeat IPC: 0.622215 cumulative IPC: 0.642316 (Simulation time: 0 hr 9 min 42 sec) 
Heartbeat CPU 0 instructions: 90000002 cycles: 77603779 heartbeat IPC: 0.701395 cumulative IPC: 0.656133 (Simulation time: 0 hr 10 min 48 sec) 
Heartbeat CPU 0 instructions: 100000000 cycles: 90931720 heartbeat IPC: 0.750303 cumulative IPC: 0.673027 (Simulation time: 0 hr 11 min 40 sec) 
Finished CPU 0 instructions: 50000001 cycles: 74291236 cumulative IPC: 0.673027 (Simulation time: 0 hr 11 min 40 sec) 

ChampSim completed all CPUs

Region of Interest Statistics

CPU 0 cumulative IPC: 0.673027 instructions: 50000001 cycles: 74291236
ITLB TOTAL     ACCESS:    7442090  HIT:    7442085  MISS:          5  HIT %:    99.9999  MISS %: 6.71854e-05   MPKI: 0.0001
ITLB LOAD TRANSLATION ACCESS:    7442090  HIT:    7442085  MISS:          5  HIT %:    99.9999  MISS %: 6.71854e-05   MPKI: 0.0001
ITLB PREFETCH  REQUESTED:          0  ISSUED:          0  USEFUL:          0  USELESS:          0
ITLB USEFUL LOAD PREFETCHES:          0 PREFETCH ISSUED TO LOWER LEVEL:          0  ACCURACY: -nan
ITLB TIMELY PREFETCHES:          0 LATE PREFETCHES: 0 DROPPED PREFETCHES: 0
ITLB PREFETCHES SAME FILL-ORIGIN LEVEL: 0 DIFFERENT FILL-ORIGIN LEVEL: 0
ITLB AVERAGE MISS LATENCY: 282 cycles
ITLB RQ	ACCESS:    9145060	FORWARD:          0	MERGED:    1702969	TO_CACHE:    7442091

DTLB TOTAL     ACCESS:   13201074  HIT:   12816022  MISS:     385052  HIT %:    97.0832  MISS %:    2.91682   MPKI: 7.70104
DTLB LOAD TRANSLATION ACCESS:   13201074  HIT:   12816022  MISS:     385052  HIT %:    97.0832  MISS %:    2.91682   MPKI: 7.70104
DTLB PREFETCH  REQUESTED:          0  ISSUED:          0  USEFUL:          0  USELESS:          0
DTLB USEFUL LOAD PREFETCHES:          0 PREFETCH ISSUED TO LOWER LEVEL:          0  ACCURACY: -nan
DTLB TIMELY PREFETCHES:          0 LATE PREFETCHES: 0 DROPPED PREFETCHES: 0
DTLB PREFETCHES SAME FILL-ORIGIN LEVEL: 0 DIFFERENT FILL-ORIGIN LEVEL: 0
DTLB AVERAGE MISS LATENCY: 9.07264 cycles
DTLB RQ	ACCESS:   16462990	FORWARD:          0	MERGED:    3178065	TO_CACHE:   13284925

STLB TOTAL     ACCESS:     430634  HIT:     430620  MISS:         14  HIT %:    99.9967  MISS %: 0.00325102   MPKI: 0.00028
STLB LOAD TRANSLATION ACCESS:     385057  HIT:     385043  MISS:         14  HIT %:    99.9964  MISS %: 0.00363583   MPKI: 0.00028
STLB TRANSLATION FROM L1D PREFETCHER ACCESS:      45577  HIT:      45577  MISS:          0  HIT %:        100  MISS %:          0   MPKI: 0
STLB PREFETCH  REQUESTED:          0  ISSUED:          0  USEFUL:          0  USELESS:          0
STLB USEFUL LOAD PREFETCHES:          0 PREFETCH ISSUED TO LOWER LEVEL:          0  ACCURACY: -nan
STLB TIMELY PREFETCHES:          0 LATE PREFETCHES: 0 DROPPED PREFETCHES: 0
STLB PREFETCHES SAME FILL-ORIGIN LEVEL: 0 DIFFERENT FILL-ORIGIN LEVEL: 0
STLB AVERAGE MISS LATENCY: 256.071 cycles
STLB RQ	ACCESS:     452149	FORWARD:          0	MERGED:      21515	TO_CACHE:     430634

STLB Hit, L1D data hit: 0
STLB Hit, L2C data hit: 0
STLB Hit, LLC data hit: 0
STLB Hit, LLC data miss: 0
STLB STLB hints to L2: 0
L1D TOTAL     ACCESS:   16516111  HIT:   16420275  MISS:      95836  HIT %:    99.4197  MISS %:   0.580258   MPKI: 1.91672
L1D LOAD      ACCESS:   10340809  HIT:   10293691  MISS:      47118  HIT %:    99.5443  MISS %:   0.455651   MPKI: 0.94236
L1D RFO       ACCESS:    6110763  HIT:    6096068  MISS:      14695  HIT %:    99.7595  MISS %:   0.240477   MPKI: 0.2939
L1D PREFETCH  ACCESS:      64539  HIT:      30516  MISS:      34023  HIT %:     47.283  MISS %:     52.717   MPKI: 0.68046
AGUS PREFETCH L1 MISS: 0
L1D PREFETCH  REQUESTED:     135236  ISSUED:     134184  USEFUL:      11906  USELESS:      22044
L1D USEFUL LOAD PREFETCHES:      11906 PREFETCH ISSUED TO LOWER LEVEL:      35059  ACCURACY: 33.9599
L1D TIMELY PREFETCHES:      11906 LATE PREFETCHES: 1036 DROPPED PREFETCHES: 0
L1D PREFETCHES SAME FILL-ORIGIN LEVEL: 35059 DIFFERENT FILL-ORIGIN LEVEL: 0
L1D AVERAGE MISS LATENCY: 15.6565 cycles
L1D RQ	ACCESS:   14592996	FORWARD:          0	MERGED:    4058815	TO_CACHE:   10342594
L1D WQ	ACCESS:    6218191	FORWARD:     191587	MERGED:      97795	TO_CACHE:    6120396
L1D PQ	ACCESS:      67092	FORWARD:          0	MERGED:          0	TO_CACHE:      67092

L1D UNIQUE REGIONS ACCESSED: 0
L1D REGIONS CONFLICTS: 0
L1D Cross Page Prefetch Requests: 34255
L1D Same Page Prefetch Requests: 69569
L1D ROI Sum of L1D PQ occupancy: 931095
L1D PREFETCHES PUSHED FROM L2C: 0
L1I TOTAL     ACCESS:    9137417  HIT:    9119136  MISS:      18281  HIT %:    99.7999  MISS %:   0.200067   MPKI: 0.36562
L1I LOAD      ACCESS:    9137417  HIT:    9119136  MISS:      18281  HIT %:    99.7999  MISS %:   0.200067   MPKI: 0.36562
L1I PREFETCH  REQUESTED:          0  ISSUED:          0  USEFUL:          0  USELESS:          0
L1I USEFUL LOAD PREFETCHES:          0 PREFETCH ISSUED TO LOWER LEVEL:          0  ACCURACY: -nan
L1I TIMELY PREFETCHES:          0 LATE PREFETCHES: 0 DROPPED PREFETCHES: 0
L1I PREFETCHES SAME FILL-ORIGIN LEVEL: 0 DIFFERENT FILL-ORIGIN LEVEL: 0
L1I AVERAGE MISS LATENCY: 14.0374 cycles
L1I RQ	ACCESS:   13199703	FORWARD:          0	MERGED:    4054643	TO_CACHE:    9145060

BTB TOTAL     ACCESS:    3547327  HIT:    3486116  MISS:      61211  HIT %:    98.2744  MISS %:    1.72555   MPKI: 1.22422
BTB BRANCH_DIRECT_JUMP	ACCESS:     372093  HIT:     371941  MISS:        152
BTB BRANCH_INDIRECT	ACCESS:      86577  HIT:      57914  MISS:      28663
BTB BRANCH_CONDITIONAL	ACCESS:    2508752  HIT:    2508344  MISS:        408
BTB BRANCH_DIRECT_CALL	ACCESS:     289953  HIT:     289892  MISS:         61
BTB BRANCH_INDIRECT_CALL	ACCESS:          0  HIT:          0  MISS:          0
BTB BRANCH_RETURN	ACCESS:     289952  HIT:     258025  MISS:      31927
BTB BRANCH_OTHER ACCESS:          0  HIT:          0  MISS:          0

L2C TOTAL     ACCESS:     131340  HIT:     130911  MISS:        429  HIT %:    99.6734  MISS %:   0.326633   MPKI: 0.00858
L2C LOAD      ACCESS:      64363  HIT:      64070  MISS:        293  HIT %:    99.5448  MISS %:    0.45523   MPKI: 0.00586
L2C DATA LOAD MPKI: 0.00324
L2C INSTRUCTION LOAD MPKI: 0.00262
L2C RFO       ACCESS:      14670  HIT:      14622  MISS:         48  HIT %:    99.6728  MISS %:   0.327198   MPKI: 0.00096
L2C PREFETCH  ACCESS:      35059  HIT:      34978  MISS:         81  HIT %:     99.769  MISS %:   0.231039   MPKI: 0.00162
AGUS PREFETCH L1 MISS: 0
L2C DATA PREFETCH MPKI: 0.00162
L2C INSTRUCTION PREFETCH MPKI: 0
L2C WRITEBACK ACCESS:      17234  HIT:      17234  MISS:          0  HIT %:        100  MISS %:          0   MPKI: 0
L2C LOAD TRANSLATION ACCESS:         14  HIT:          7  MISS:          7  HIT %:         50  MISS %:         50   MPKI: 0.00014
L2C PREFETCH  REQUESTED:          0  ISSUED:          0  USEFUL:        112  USELESS:          0
L2C USEFUL LOAD PREFETCHES:        112 PREFETCH ISSUED TO LOWER LEVEL:         81  ACCURACY: 138.272
L2C TIMELY PREFETCHES:        112 LATE PREFETCHES: 0 DROPPED PREFETCHES: 0
L2C PREFETCHES SAME FILL-ORIGIN LEVEL: 0 DIFFERENT FILL-ORIGIN LEVEL: 0
L2C AVERAGE MISS LATENCY: 164.774 cycles
L2C RQ	ACCESS:      79072	FORWARD:          0	MERGED:          0	TO_CACHE:      79047
L2C WQ	ACCESS:      17234	FORWARD:         25	MERGED:          0	TO_CACHE:      17234
L2C PQ	ACCESS:      35059	FORWARD:          0	MERGED:          0	TO_CACHE:      35059

L2C Instructions Evicting Data 0
L2C Translations Evicting Data 0
L2C Data Evicting Data 0
L2C Instructions Evicting Instructions 0
L2C Translations Evicting Instructions 0
L2C Data Evicting Instructions 1
L2C Instructions Evicting Translations 0
L2C Translations Evicting Translations 0
L2C Data Evicting Translations 0
L2C Dense regions hint from L2: 0
PSCL5 TOTAL     ACCESS:         14  HIT:         14  MISS:          0  HIT %:        100  MISS %:          0   MPKI: 0
PSCL5 LOAD TRANSLATION ACCESS:         14  HIT:         14  MISS:          0  HIT %:        100  MISS %:          0   MPKI: 0
PSCL5 PREFETCH  REQUESTED:          0  ISSUED:          0  USEFUL:          0  USELESS:          0
PSCL5 USEFUL LOAD PREFETCHES:          0 PREFETCH ISSUED TO LOWER LEVEL:          0  ACCURACY: -nan
PSCL5 TIMELY PREFETCHES:          0 LATE PREFETCHES: 0 DROPPED PREFETCHES: 0
PSCL5 PREFETCHES SAME FILL-ORIGIN LEVEL: 0 DIFFERENT FILL-ORIGIN LEVEL: 0

PSCL4 TOTAL     ACCESS:         14  HIT:         14  MISS:          0  HIT %:        100  MISS %:          0   MPKI: 0
PSCL4 LOAD TRANSLATION ACCESS:         14  HIT:         14  MISS:          0  HIT %:        100  MISS %:          0   MPKI: 0
PSCL4 PREFETCH  REQUESTED:          0  ISSUED:          0  USEFUL:          0  USELESS:          0
PSCL4 USEFUL LOAD PREFETCHES:          0 PREFETCH ISSUED TO LOWER LEVEL:          0  ACCURACY: -nan
PSCL4 TIMELY PREFETCHES:          0 LATE PREFETCHES: 0 DROPPED PREFETCHES: 0
PSCL4 PREFETCHES SAME FILL-ORIGIN LEVEL: 0 DIFFERENT FILL-ORIGIN LEVEL: 0

PSCL3 TOTAL     ACCESS:         14  HIT:         14  MISS:          0  HIT %:        100  MISS %:          0   MPKI: 0
PSCL3 LOAD TRANSLATION ACCESS:         14  HIT:         14  MISS:          0  HIT %:        100  MISS %:          0   MPKI: 0
PSCL3 PREFETCH  REQUESTED:          0  ISSUED:          0  USEFUL:          0  USELESS:          0
PSCL3 USEFUL LOAD PREFETCHES:          0 PREFETCH ISSUED TO LOWER LEVEL:          0  ACCURACY: -nan
PSCL3 TIMELY PREFETCHES:          0 LATE PREFETCHES: 0 DROPPED PREFETCHES: 0
PSCL3 PREFETCHES SAME FILL-ORIGIN LEVEL: 0 DIFFERENT FILL-ORIGIN LEVEL: 0

PSCL2 TOTAL     ACCESS:         14  HIT:         14  MISS:          0  HIT %:        100  MISS %:          0   MPKI: 0
PSCL2 LOAD TRANSLATION ACCESS:         14  HIT:         14  MISS:          0  HIT %:        100  MISS %:          0   MPKI: 0
PSCL2 PREFETCH  REQUESTED:          0  ISSUED:          0  USEFUL:          0  USELESS:          0
PSCL2 USEFUL LOAD PREFETCHES:          0 PREFETCH ISSUED TO LOWER LEVEL:          0  ACCURACY: -nan
PSCL2 TIMELY PREFETCHES:          0 LATE PREFETCHES: 0 DROPPED PREFETCHES: 0
PSCL2 PREFETCHES SAME FILL-ORIGIN LEVEL: 0 DIFFERENT FILL-ORIGIN LEVEL: 0

LLC TOTAL     ACCESS:        429  HIT:          0  MISS:        429  HIT %:          0  MISS %:        100   MPKI: 0.00858
LLC LOAD      ACCESS:        293  HIT:          0  MISS:        293  HIT %:          0  MISS %:        100   MPKI: 0.00586
LLC RFO       ACCESS:         48  HIT:          0  MISS:         48  HIT %:          0  MISS %:        100   MPKI: 0.00096
LLC PREFETCH  ACCESS:         81  HIT:          0  MISS:         81  HIT %:          0  MISS %:        100   MPKI: 0.00162
AGUS PREFETCH L1 MISS: 0
LLC LOAD TRANSLATION ACCESS:          7  HIT:          0  MISS:          7  HIT %:          0  MISS %:        100   MPKI: 0.00014
LLC PREFETCH  REQUESTED:          0  ISSUED:          0  USEFUL:          0  USELESS:          0
LLC USEFUL LOAD PREFETCHES:          0 PREFETCH ISSUED TO LOWER LEVEL:         81  ACCURACY: 0
LLC TIMELY PREFETCHES:          0 LATE PREFETCHES: 0 DROPPED PREFETCHES: 0
LLC PREFETCHES SAME FILL-ORIGIN LEVEL: 0 DIFFERENT FILL-ORIGIN LEVEL: 0
LLC AVERAGE MISS LATENCY: 134.152 cycles
LLC RQ	ACCESS:        348	FORWARD:          0	MERGED:          0	TO_CACHE:        348
LLC PQ	ACCESS:         81	FORWARD:          0	MERGED:          0	TO_CACHE:         81

LLC Dense regions hint to LLC: 0

RAW hits: 1471384
Loads Generated: 16064387
Loads sent to L1D: 14592996
Stores Generated: 6218182
Stores sent to L1D: 6218191
Major fault: 0 Minor fault: 187
Allocated PAGES: 187

stream: 
stream:times selected: 51072
stream:pref_filled: 23496
stream:pref_useful: 8612
stream:pref_late: 594
stream:misses: 11241
stream:misses_by_poll: 0

CS: 
CS:times selected: 451
CS:pref_filled: 420
CS:pref_useful: 179
CS:pref_late: 0
CS:misses: 219
CS:misses_by_poll: 0

CPLX: 
CPLX:times selected: 50358
CPLX:pref_filled: 792
CPLX:pref_useful: 240
CPLX:pref_late: 21
CPLX:misses: 40107
CPLX:misses_by_poll: 0

NL_L1: 
NL:times selected: 317
NL:pref_filled: 125
NL:pref_useful: 67
NL:pref_late: 8
NL:misses: 323
NL:misses_by_poll: 0

Coverage: 20.1715
total selections: 102198
total_filled: 34023
total_useful: 11906
total_late: 996
total_polluted: 0
total_misses_after_warmup: 48902
conflicts: 5919

test: 25702
ISB Prefetcher final stats
Training Unit Size: 105
Addr table size: 1809 1813


Triggers: 51079
No Prediction: 6152 12.0441
Stream end: 44259
No translation: 45002301 88103.3
Predictions: 53484 104.708


Stream divergence: 12998 25.4469
Stream divergence -- new stream: 0

DRAM Statistics
 CHANNEL 0
 RQ ROW_BUFFER_HIT:        165  ROW_BUFFER_MISS:        264
 DBUS_CONGESTED:          0
 WQ ROW_BUFFER_HIT:          0  ROW_BUFFER_MISS:          0  FULL:          0

 AVG_CONGESTED_CYCLE: -
 All warmup complete: 2
Channel 0 Bank busy for read cycles: 0
Channel 0 Bank busy for write cycles: 0
Channel 0
Rank 0
0banks busy for read cycles: 74255565
0banks busy for write cycles: 0
1banks busy for read cycles: 25391
1banks busy for write cycles: 0
2banks busy for read cycles: 9080
2banks busy for write cycles: 0
3banks busy for read cycles: 748
3banks busy for write cycles: 0
4banks busy for read cycles: 225
4banks busy for write cycles: 0
5banks busy for read cycles: 212
5banks busy for write cycles: 0
6banks busy for read cycles: 16
6banks busy for write cycles: 0
7banks busy for read cycles: 0
7banks busy for write cycles: 0
8banks busy for read cycles: 0
8banks busy for write cycles: 0

CPU 0 Branch Prediction Accuracy: 92.7137% MPKI: 6.85088 Average ROB Occupancy at Mispredict: 72.5117
Branch types
NOT_BRANCH: 45298634 90.5973%
BRANCH_DIRECT_JUMP: 372093 0.744186%
BRANCH_INDIRECT: 86577 0.173154%
BRANCH_CONDITIONAL: 3662630 7.32526%
BRANCH_DIRECT_CALL: 289953 0.579906%
BRANCH_INDIRECT_CALL: 0 0%
BRANCH_RETURN: 289952 0.579904%
BRANCH_OTHER: 0 0%

DRAM PAGES: 1048576
Allocated PAGES: 187
