
*** ChampSim Multicore Out-of-Order Simulator ***

Warmup Instructions: 50000000
Simulation Instructions: 50000000
Number of CPUs: 1
LLC sets: 2048
LLC ways: 16
Off-chip DRAM Size: 4096 MB Channels: 1 Width: 64-bit Data Rate: 6400 MT/s
CPU 0 runs ./traces/SPEC-CPU2017/416.gamess-875B.champsimtrace.xz
.xz
CPU 0 Bimodal branch predictor
BTB has LRU replacement policy
ITLB has LRU replacement policy
DTLB has LRU replacement policy
STLB has LRU replacement policy
L1I has LRU replacement policy
L1D has LRU replacement policy
L2C has LRU replacement policy
LLC has LRU replacement policy
Heartbeat CPU 0 instructions: 10000002 cycles: 3309618 heartbeat IPC: 3.0215 cumulative IPC: 3.0215 (Simulation time: 0 hr 10 min 18 sec) 
Heartbeat CPU 0 instructions: 20000000 cycles: 6594814 heartbeat IPC: 3.04396 cumulative IPC: 3.03269 (Simulation time: 0 hr 21 min 53 sec) 
Heartbeat CPU 0 instructions: 30000000 cycles: 9937485 heartbeat IPC: 2.99162 cumulative IPC: 3.01887 (Simulation time: 0 hr 33 min 31 sec) 
Heartbeat CPU 0 instructions: 40000000 cycles: 13290612 heartbeat IPC: 2.98229 cumulative IPC: 3.00964 (Simulation time: 0 hr 45 min 17 sec) 
Heartbeat CPU 0 instructions: 50000000 cycles: 16642349 heartbeat IPC: 2.98353 cumulative IPC: 3.00438 (Simulation time: 0 hr 56 min 48 sec) 

Warmup complete CPU 0 instructions: 50000004 cycles: 16642350 (Simulation time: 0 hr 56 min 48 sec) 

Heartbeat CPU 0 instructions: 60000000 cycles: 31495662 heartbeat IPC: 0.67325 cumulative IPC: 0.67325 (Simulation time: 0 hr 58 min 36 sec) 
Heartbeat CPU 0 instructions: 70000000 cycles: 47282004 heartbeat IPC: 0.633459 cumulative IPC: 0.652749 (Simulation time: 1 hr 0 min 34 sec) 
Heartbeat CPU 0 instructions: 80000000 cycles: 63355878 heartbeat IPC: 0.622128 cumulative IPC: 0.642212 (Simulation time: 1 hr 2 min 26 sec) 
Heartbeat CPU 0 instructions: 90000002 cycles: 77617569 heartbeat IPC: 0.701179 cumulative IPC: 0.656004 (Simulation time: 1 hr 4 min 2 sec) 
Heartbeat CPU 0 instructions: 100000000 cycles: 90954335 heartbeat IPC: 0.749807 cumulative IPC: 0.672839 (Simulation time: 1 hr 5 min 27 sec) 
Finished CPU 0 instructions: 50000001 cycles: 74312003 cumulative IPC: 0.672839 (Simulation time: 1 hr 5 min 27 sec) 

ChampSim completed all CPUs

Region of Interest Statistics

CPU 0 cumulative IPC: 0.672839 instructions: 50000001 cycles: 74312003
ITLB TOTAL     ACCESS:    7442171  HIT:    7442166  MISS:          5  HIT %:    99.9999  MISS %: 6.71847e-05   MPKI: 0.0001
ITLB LOAD TRANSLATION ACCESS:    7442171  HIT:    7442166  MISS:          5  HIT %:    99.9999  MISS %: 6.71847e-05   MPKI: 0.0001
ITLB PREFETCH  REQUESTED:          0  ISSUED:          0  USEFUL:          0  USELESS:          0
ITLB USEFUL LOAD PREFETCHES:          0 PREFETCH ISSUED TO LOWER LEVEL:          0  ACCURACY: -nan
ITLB TIMELY PREFETCHES:          0 LATE PREFETCHES: 0 DROPPED PREFETCHES: 0
ITLB PREFETCHES SAME FILL-ORIGIN LEVEL: 0 DIFFERENT FILL-ORIGIN LEVEL: 0
ITLB AVERAGE MISS LATENCY: 282 cycles
ITLB RQ	ACCESS:    9145136	FORWARD:          0	MERGED:    1702964	TO_CACHE:    7442172

DTLB TOTAL     ACCESS:   13201196  HIT:   12816147  MISS:     385049  HIT %:    97.0832  MISS %:    2.91677   MPKI: 7.70098
DTLB LOAD TRANSLATION ACCESS:   13201196  HIT:   12816147  MISS:     385049  HIT %:    97.0832  MISS %:    2.91677   MPKI: 7.70098
DTLB PREFETCH  REQUESTED:          0  ISSUED:          0  USEFUL:          0  USELESS:          0
DTLB USEFUL LOAD PREFETCHES:          0 PREFETCH ISSUED TO LOWER LEVEL:          0  ACCURACY: -nan
DTLB TIMELY PREFETCHES:          0 LATE PREFETCHES: 0 DROPPED PREFETCHES: 0
DTLB PREFETCHES SAME FILL-ORIGIN LEVEL: 0 DIFFERENT FILL-ORIGIN LEVEL: 0
DTLB AVERAGE MISS LATENCY: 9.07371 cycles
DTLB RQ	ACCESS:   16462466	FORWARD:          0	MERGED:    3177382	TO_CACHE:   13285084

STLB TOTAL     ACCESS:     856314  HIT:     856300  MISS:         14  HIT %:    99.9984  MISS %: 0.00163491   MPKI: 0.00028
STLB LOAD TRANSLATION ACCESS:     385054  HIT:     385040  MISS:         14  HIT %:    99.9964  MISS %: 0.00363585   MPKI: 0.00028
STLB TRANSLATION FROM L1D PREFETCHER ACCESS:     471260  HIT:     471260  MISS:          0  HIT %:        100  MISS %:          0   MPKI: 0
STLB PREFETCH  REQUESTED:          0  ISSUED:          0  USEFUL:          0  USELESS:          0
STLB USEFUL LOAD PREFETCHES:          0 PREFETCH ISSUED TO LOWER LEVEL:          0  ACCURACY: -nan
STLB TIMELY PREFETCHES:          0 LATE PREFETCHES: 0 DROPPED PREFETCHES: 0
STLB PREFETCHES SAME FILL-ORIGIN LEVEL: 0 DIFFERENT FILL-ORIGIN LEVEL: 0
STLB AVERAGE MISS LATENCY: 256.071 cycles
STLB RQ	ACCESS:    1010373	FORWARD:          0	MERGED:     154059	TO_CACHE:     856314

STLB Hit, L1D data hit: 0
STLB Hit, L2C data hit: 0
STLB Hit, LLC data hit: 0
STLB Hit, LLC data miss: 0
STLB STLB hints to L2: 0
L1D TOTAL     ACCESS:   17070662  HIT:   16940512  MISS:     130150  HIT %:    99.2376  MISS %:   0.762419   MPKI: 2.603
L1D LOAD      ACCESS:   10339839  HIT:   10278840  MISS:      60999  HIT %:    99.4101  MISS %:   0.589941   MPKI: 1.21998
L1D RFO       ACCESS:    6109107  HIT:    6091974  MISS:      17133  HIT %:    99.7195  MISS %:    0.28045   MPKI: 0.34266
L1D PREFETCH  ACCESS:     621716  HIT:     569698  MISS:      52018  HIT %:    91.6332  MISS %:    8.36684   MPKI: 1.04036
AGUS PREFETCH L1 MISS: 0
L1D PREFETCH  REQUESTED:    1251702  ISSUED:    1251115  USEFUL:      11024  USELESS:      41099
L1D USEFUL LOAD PREFETCHES:      11024 PREFETCH ISSUED TO LOWER LEVEL:      53239  ACCURACY: 20.7066
L1D TIMELY PREFETCHES:      11024 LATE PREFETCHES: 1156 DROPPED PREFETCHES: 0
L1D PREFETCHES SAME FILL-ORIGIN LEVEL: 53239 DIFFERENT FILL-ORIGIN LEVEL: 0
L1D AVERAGE MISS LATENCY: 15.9571 cycles
L1D RQ	ACCESS:   14592767	FORWARD:          0	MERGED:    4059122	TO_CACHE:   10342065
L1D WQ	ACCESS:    6218191	FORWARD:     192057	MERGED:      97790	TO_CACHE:    6120401
L1D PQ	ACCESS:     625796	FORWARD:          0	MERGED:          0	TO_CACHE:     625319

L1D UNIQUE REGIONS ACCESSED: 0
L1D REGIONS CONFLICTS: 0
L1D Cross Page Prefetch Requests: 0
L1D Same Page Prefetch Requests: 1489625
L1D ROI Sum of L1D PQ occupancy: 8135696
L1D PREFETCHES PUSHED FROM L2C: 0
L1I TOTAL     ACCESS:    9137491  HIT:    9119210  MISS:      18281  HIT %:    99.7999  MISS %:   0.200066   MPKI: 0.36562
L1I LOAD      ACCESS:    9137491  HIT:    9119210  MISS:      18281  HIT %:    99.7999  MISS %:   0.200066   MPKI: 0.36562
L1I PREFETCH  REQUESTED:          0  ISSUED:          0  USEFUL:          0  USELESS:          0
L1I USEFUL LOAD PREFETCHES:          0 PREFETCH ISSUED TO LOWER LEVEL:          0  ACCURACY: -nan
L1I TIMELY PREFETCHES:          0 LATE PREFETCHES: 0 DROPPED PREFETCHES: 0
L1I PREFETCHES SAME FILL-ORIGIN LEVEL: 0 DIFFERENT FILL-ORIGIN LEVEL: 0
L1I AVERAGE MISS LATENCY: 14.0997 cycles
L1I RQ	ACCESS:   13199829	FORWARD:          0	MERGED:    4054693	TO_CACHE:    9145136

BTB TOTAL     ACCESS:    3547327  HIT:    3486116  MISS:      61211  HIT %:    98.2744  MISS %:    1.72555   MPKI: 1.22422
BTB BRANCH_DIRECT_JUMP	ACCESS:     372093  HIT:     371941  MISS:        152
BTB BRANCH_INDIRECT	ACCESS:      86577  HIT:      57914  MISS:      28663
BTB BRANCH_CONDITIONAL	ACCESS:    2508752  HIT:    2508344  MISS:        408
BTB BRANCH_DIRECT_CALL	ACCESS:     289953  HIT:     289892  MISS:         61
BTB BRANCH_INDIRECT_CALL	ACCESS:          0  HIT:          0  MISS:          0
BTB BRANCH_RETURN	ACCESS:     289952  HIT:     258025  MISS:      31927
BTB BRANCH_OTHER ACCESS:          0  HIT:          0  MISS:          0

L2C TOTAL     ACCESS:     169549  HIT:     168784  MISS:        765  HIT %:    99.5488  MISS %:   0.451197   MPKI: 0.0153
L2C LOAD      ACCESS:      78123  HIT:      77926  MISS:        197  HIT %:    99.7478  MISS %:   0.252166   MPKI: 0.00394
L2C DATA LOAD MPKI: 0.00132
L2C INSTRUCTION LOAD MPKI: 0.00262
L2C RFO       ACCESS:      17028  HIT:      16992  MISS:         36  HIT %:    99.7886  MISS %:   0.211416   MPKI: 0.00072
L2C PREFETCH  ACCESS:      53239  HIT:      52714  MISS:        525  HIT %:    99.0139  MISS %:   0.986119   MPKI: 0.0105
AGUS PREFETCH L1 MISS: 0
L2C DATA PREFETCH MPKI: 0.0105
L2C INSTRUCTION PREFETCH MPKI: 0
L2C WRITEBACK ACCESS:      21145  HIT:      21145  MISS:          0  HIT %:        100  MISS %:          0   MPKI: 0
L2C LOAD TRANSLATION ACCESS:         14  HIT:          7  MISS:          7  HIT %:         50  MISS %:         50   MPKI: 0.00014
L2C PREFETCH  REQUESTED:          0  ISSUED:          0  USEFUL:        241  USELESS:          1
L2C USEFUL LOAD PREFETCHES:        241 PREFETCH ISSUED TO LOWER LEVEL:        525  ACCURACY: 45.9048
L2C TIMELY PREFETCHES:        241 LATE PREFETCHES: 0 DROPPED PREFETCHES: 0
L2C PREFETCHES SAME FILL-ORIGIN LEVEL: 0 DIFFERENT FILL-ORIGIN LEVEL: 0
L2C AVERAGE MISS LATENCY: 178.312 cycles
L2C RQ	ACCESS:      95206	FORWARD:          0	MERGED:          0	TO_CACHE:      95165
L2C WQ	ACCESS:      21145	FORWARD:         41	MERGED:          0	TO_CACHE:      21145
L2C PQ	ACCESS:      53239	FORWARD:          0	MERGED:          0	TO_CACHE:      53239

L2C Instructions Evicting Data 0
L2C Translations Evicting Data 0
L2C Data Evicting Data 2
L2C Instructions Evicting Instructions 0
L2C Translations Evicting Instructions 0
L2C Data Evicting Instructions 4
L2C Instructions Evicting Translations 1
L2C Translations Evicting Translations 0
L2C Data Evicting Translations 0
L2C Dense regions hint from L2: 0
PSCL5 TOTAL     ACCESS:         14  HIT:         14  MISS:          0  HIT %:        100  MISS %:          0   MPKI: 0
PSCL5 LOAD TRANSLATION ACCESS:         14  HIT:         14  MISS:          0  HIT %:        100  MISS %:          0   MPKI: 0
PSCL5 PREFETCH  REQUESTED:          0  ISSUED:          0  USEFUL:          0  USELESS:          0
PSCL5 USEFUL LOAD PREFETCHES:          0 PREFETCH ISSUED TO LOWER LEVEL:          0  ACCURACY: -nan
PSCL5 TIMELY PREFETCHES:          0 LATE PREFETCHES: 0 DROPPED PREFETCHES: 0
PSCL5 PREFETCHES SAME FILL-ORIGIN LEVEL: 0 DIFFERENT FILL-ORIGIN LEVEL: 0

PSCL4 TOTAL     ACCESS:         14  HIT:         14  MISS:          0  HIT %:        100  MISS %:          0   MPKI: 0
PSCL4 LOAD TRANSLATION ACCESS:         14  HIT:         14  MISS:          0  HIT %:        100  MISS %:          0   MPKI: 0
PSCL4 PREFETCH  REQUESTED:          0  ISSUED:          0  USEFUL:          0  USELESS:          0
PSCL4 USEFUL LOAD PREFETCHES:          0 PREFETCH ISSUED TO LOWER LEVEL:          0  ACCURACY: -nan
PSCL4 TIMELY PREFETCHES:          0 LATE PREFETCHES: 0 DROPPED PREFETCHES: 0
PSCL4 PREFETCHES SAME FILL-ORIGIN LEVEL: 0 DIFFERENT FILL-ORIGIN LEVEL: 0

PSCL3 TOTAL     ACCESS:         14  HIT:         14  MISS:          0  HIT %:        100  MISS %:          0   MPKI: 0
PSCL3 LOAD TRANSLATION ACCESS:         14  HIT:         14  MISS:          0  HIT %:        100  MISS %:          0   MPKI: 0
PSCL3 PREFETCH  REQUESTED:          0  ISSUED:          0  USEFUL:          0  USELESS:          0
PSCL3 USEFUL LOAD PREFETCHES:          0 PREFETCH ISSUED TO LOWER LEVEL:          0  ACCURACY: -nan
PSCL3 TIMELY PREFETCHES:          0 LATE PREFETCHES: 0 DROPPED PREFETCHES: 0
PSCL3 PREFETCHES SAME FILL-ORIGIN LEVEL: 0 DIFFERENT FILL-ORIGIN LEVEL: 0

PSCL2 TOTAL     ACCESS:         14  HIT:         14  MISS:          0  HIT %:        100  MISS %:          0   MPKI: 0
PSCL2 LOAD TRANSLATION ACCESS:         14  HIT:         14  MISS:          0  HIT %:        100  MISS %:          0   MPKI: 0
PSCL2 PREFETCH  REQUESTED:          0  ISSUED:          0  USEFUL:          0  USELESS:          0
PSCL2 USEFUL LOAD PREFETCHES:          0 PREFETCH ISSUED TO LOWER LEVEL:          0  ACCURACY: -nan
PSCL2 TIMELY PREFETCHES:          0 LATE PREFETCHES: 0 DROPPED PREFETCHES: 0
PSCL2 PREFETCHES SAME FILL-ORIGIN LEVEL: 0 DIFFERENT FILL-ORIGIN LEVEL: 0

LLC TOTAL     ACCESS:        765  HIT:          2  MISS:        763  HIT %:   0.261438  MISS %:    99.7386   MPKI: 0.01526
LLC LOAD      ACCESS:        197  HIT:          2  MISS:        195  HIT %:    1.01523  MISS %:    98.9848   MPKI: 0.0039
LLC RFO       ACCESS:         36  HIT:          0  MISS:         36  HIT %:          0  MISS %:        100   MPKI: 0.00072
LLC PREFETCH  ACCESS:        525  HIT:          0  MISS:        525  HIT %:          0  MISS %:        100   MPKI: 0.0105
AGUS PREFETCH L1 MISS: 0
LLC LOAD TRANSLATION ACCESS:          7  HIT:          0  MISS:          7  HIT %:          0  MISS %:        100   MPKI: 0.00014
LLC PREFETCH  REQUESTED:          0  ISSUED:          0  USEFUL:          1  USELESS:          0
LLC USEFUL LOAD PREFETCHES:          1 PREFETCH ISSUED TO LOWER LEVEL:        525  ACCURACY: 0.190476
LLC TIMELY PREFETCHES:          1 LATE PREFETCHES: 0 DROPPED PREFETCHES: 0
LLC PREFETCHES SAME FILL-ORIGIN LEVEL: 0 DIFFERENT FILL-ORIGIN LEVEL: 0
LLC AVERAGE MISS LATENCY: 148.463 cycles
LLC RQ	ACCESS:        240	FORWARD:          0	MERGED:          0	TO_CACHE:        240
LLC PQ	ACCESS:        525	FORWARD:          0	MERGED:          0	TO_CACHE:        525

LLC Dense regions hint to LLC: 0

RAW hits: 1471613
Loads Generated: 16064387
Loads sent to L1D: 14592767
Stores Generated: 6218182
Stores sent to L1D: 6218191
Major fault: 0 Minor fault: 187
Allocated PAGES: 187

stream: 
stream:times selected: 2128268
stream:pref_filled: 50334
stream:pref_useful: 15306
stream:pref_late: 772
stream:misses: 3574
stream:misses_by_poll: 0

CS: 
CS:times selected: 69514
CS:pref_filled: 660
CS:pref_useful: 113
CS:pref_late: 0
CS:misses: 11
CS:misses_by_poll: 0

CPLX: 
CPLX:times selected: 2112664
CPLX:pref_filled: 43472
CPLX:pref_useful: 3997
CPLX:pref_late: 53
CPLX:misses: 17599
CPLX:misses_by_poll: 39

NL_L1: 
NL:times selected: 8388
NL:pref_filled: 162
NL:pref_useful: 59
NL:pref_late: 9
NL:misses: 88
NL:misses_by_poll: 0

total selections: 4318834
total_filled: 52018
total_useful: 11024
total_late: 1231
total_polluted: 39
total_misses_after_warmup: 63224
conflicts: 4580654

test: 617896

DRAM Statistics
 CHANNEL 0
 RQ ROW_BUFFER_HIT:        179  ROW_BUFFER_MISS:        584
 DBUS_CONGESTED:          0
 WQ ROW_BUFFER_HIT:          0  ROW_BUFFER_MISS:          0  FULL:          0

 AVG_CONGESTED_CYCLE: -
 All warmup complete: 2
Channel 0 Bank busy for read cycles: 0
Channel 0 Bank busy for write cycles: 0
Channel 0
Rank 0
0banks busy for read cycles: 74225429
0banks busy for write cycles: 0
1banks busy for read cycles: 78566
1banks busy for write cycles: 0
2banks busy for read cycles: 6572
2banks busy for write cycles: 0
3banks busy for read cycles: 1057
3banks busy for write cycles: 0
4banks busy for read cycles: 246
4banks busy for write cycles: 0
5banks busy for read cycles: 118
5banks busy for write cycles: 0
6banks busy for read cycles: 16
6banks busy for write cycles: 0
7banks busy for read cycles: 0
7banks busy for write cycles: 0
8banks busy for read cycles: 0
8banks busy for write cycles: 0

CPU 0 Branch Prediction Accuracy: 92.7137% MPKI: 6.85088 Average ROB Occupancy at Mispredict: 72.5448
Branch types
NOT_BRANCH: 45298634 90.5973%
BRANCH_DIRECT_JUMP: 372093 0.744186%
BRANCH_INDIRECT: 86577 0.173154%
BRANCH_CONDITIONAL: 3662630 7.32526%
BRANCH_DIRECT_CALL: 289953 0.579906%
BRANCH_INDIRECT_CALL: 0 0%
BRANCH_RETURN: 289952 0.579904%
BRANCH_OTHER: 0 0%

DRAM PAGES: 1048576
Allocated PAGES: 187
