
*** ChampSim Multicore Out-of-Order Simulator ***

Warmup Instructions: 50000000
Simulation Instructions: 50000000
Number of CPUs: 1
LLC sets: 2048
LLC ways: 16
Off-chip DRAM Size: 4096 MB Channels: 1 Width: 64-bit Data Rate: 6400 MT/s
CPU 0 runs ./traces/SPEC-CPU2017/429.mcf-184B.champsimtrace.xz
.xz
CPU 0 Bimodal branch predictor
BTB has LRU replacement policy
ITLB has LRU replacement policy
DTLB has LRU replacement policy
STLB has LRU replacement policy
L1I has LRU replacement policy
L1D has LRU replacement policy
L2C has LRU replacement policy
LLC has LRU replacement policy
Heartbeat CPU 0 instructions: 10000003 cycles: 3790318 heartbeat IPC: 2.6383 cumulative IPC: 2.6383 (Simulation time: 0 hr 10 min 32 sec) 
Heartbeat CPU 0 instructions: 20000000 cycles: 7552801 heartbeat IPC: 2.65782 cumulative IPC: 2.64802 (Simulation time: 0 hr 17 min 38 sec) 
Heartbeat CPU 0 instructions: 30000001 cycles: 11301047 heartbeat IPC: 2.66791 cumulative IPC: 2.65462 (Simulation time: 0 hr 24 min 24 sec) 
Heartbeat CPU 0 instructions: 40000000 cycles: 15051124 heartbeat IPC: 2.66661 cumulative IPC: 2.65761 (Simulation time: 0 hr 30 min 55 sec) 
Heartbeat CPU 0 instructions: 50000000 cycles: 18807779 heartbeat IPC: 2.66194 cumulative IPC: 2.65847 (Simulation time: 0 hr 37 min 35 sec) 

Warmup complete CPU 0 instructions: 50000004 cycles: 18807780 (Simulation time: 0 hr 37 min 35 sec) 

Heartbeat CPU 0 instructions: 60000000 cycles: 131569688 heartbeat IPC: 0.0886824 cumulative IPC: 0.0886824 (Simulation time: 0 hr 42 min 52 sec) 
Heartbeat CPU 0 instructions: 70000000 cycles: 247242138 heartbeat IPC: 0.086451 cumulative IPC: 0.0875525 (Simulation time: 0 hr 47 min 45 sec) 
Heartbeat CPU 0 instructions: 80000000 cycles: 361514643 heartbeat IPC: 0.0875101 cumulative IPC: 0.0875384 (Simulation time: 0 hr 52 min 56 sec) 
Heartbeat CPU 0 instructions: 90000000 cycles: 461958450 heartbeat IPC: 0.0995582 cumulative IPC: 0.0902627 (Simulation time: 0 hr 57 min 23 sec) 
Heartbeat CPU 0 instructions: 100000000 cycles: 566191139 heartbeat IPC: 0.0959392 cumulative IPC: 0.0913437 (Simulation time: 1 hr 1 min 58 sec) 
Finished CPU 0 instructions: 50000000 cycles: 547383369 cumulative IPC: 0.0913437 (Simulation time: 1 hr 1 min 58 sec) 

ChampSim completed all CPUs

Region of Interest Statistics

CPU 0 cumulative IPC: 0.0913437 instructions: 50000000 cycles: 547383369
ITLB TOTAL     ACCESS:    9252810  HIT:    9252810  MISS:          0  HIT %:        100  MISS %:          0   MPKI: 0
ITLB LOAD TRANSLATION ACCESS:    9252810  HIT:    9252810  MISS:          0  HIT %:        100  MISS %:          0   MPKI: 0
ITLB PREFETCH  REQUESTED:          0  ISSUED:          0  USEFUL:          0  USELESS:          0
ITLB USEFUL LOAD PREFETCHES:          0 PREFETCH ISSUED TO LOWER LEVEL:          0  ACCURACY: -nan
ITLB TIMELY PREFETCHES:          0 LATE PREFETCHES: 0 DROPPED PREFETCHES: 0
ITLB PREFETCHES SAME FILL-ORIGIN LEVEL: 0 DIFFERENT FILL-ORIGIN LEVEL: 0
ITLB AVERAGE MISS LATENCY: -nan cycles
ITLB RQ	ACCESS:   10144364	FORWARD:          0	MERGED:     891555	TO_CACHE:    9252809

DTLB TOTAL     ACCESS:   11085198  HIT:    5401884  MISS:    5683314  HIT %:    48.7306  MISS %:    51.2694   MPKI: 113.666
DTLB LOAD TRANSLATION ACCESS:   11085198  HIT:    5401884  MISS:    5683314  HIT %:    48.7306  MISS %:    51.2694   MPKI: 113.666
DTLB PREFETCH  REQUESTED:          0  ISSUED:          0  USEFUL:          0  USELESS:          0
DTLB USEFUL LOAD PREFETCHES:          0 PREFETCH ISSUED TO LOWER LEVEL:          0  ACCURACY: -nan
DTLB TIMELY PREFETCHES:          0 LATE PREFETCHES: 0 DROPPED PREFETCHES: 0
DTLB PREFETCHES SAME FILL-ORIGIN LEVEL: 0 DIFFERENT FILL-ORIGIN LEVEL: 0
DTLB AVERAGE MISS LATENCY: 14.6314 cycles
DTLB RQ	ACCESS:   11971592	FORWARD:          0	MERGED:     875296	TO_CACHE:   11096296

STLB TOTAL     ACCESS:   15361525  HIT:   14741245  MISS:     620280  HIT %:    95.9621  MISS %:    4.03788   MPKI: 12.4056
STLB LOAD TRANSLATION ACCESS:    5683313  HIT:    5477657  MISS:     205656  HIT %:    96.3814  MISS %:    3.61859   MPKI: 4.11312
STLB TRANSLATION FROM L1D PREFETCHER ACCESS:    9678212  HIT:    9263588  MISS:     414624  HIT %:    95.7159  MISS %:     4.2841   MPKI: 8.29248
STLB PREFETCH  REQUESTED:          0  ISSUED:          0  USEFUL:     312954  USELESS:     101653
STLB USEFUL LOAD PREFETCHES:     312954 PREFETCH ISSUED TO LOWER LEVEL:          0  ACCURACY: inf
STLB TIMELY PREFETCHES:     312954 LATE PREFETCHES: 1560 DROPPED PREFETCHES: 0
STLB PREFETCHES SAME FILL-ORIGIN LEVEL: 0 DIFFERENT FILL-ORIGIN LEVEL: 0
STLB AVERAGE MISS LATENCY: 209.416 cycles
STLB RQ	ACCESS:   17174203	FORWARD:          0	MERGED:    1809887	TO_CACHE:   15364316

STLB Hit, L1D data hit: 0
STLB Hit, L2C data hit: 0
STLB Hit, LLC data hit: 0
STLB Hit, LLC data miss: 0
STLB STLB hints to L2: 0
L1D TOTAL     ACCESS:   23307626  HIT:    6414188  MISS:   16893438  HIT %:    27.5197  MISS %:    72.4803   MPKI: 337.869
L1D LOAD      ACCESS:   10746540  HIT:    4928870  MISS:    5817670  HIT %:    45.8647  MISS %:    54.1353   MPKI: 116.353
L1D RFO       ACCESS:    1199235  HIT:    1149453  MISS:      49782  HIT %:    95.8489  MISS %:    4.15115   MPKI: 0.99564
L1D PREFETCH  ACCESS:   11361851  HIT:     335865  MISS:   11025986  HIT %:    2.95608  MISS %:    97.0439   MPKI: 220.52
AGUS PREFETCH L1 MISS: 0
L1D PREFETCH  REQUESTED:   23269581  ISSUED:   22981818  USEFUL:     823671  USELESS:   10202267
L1D USEFUL LOAD PREFETCHES:     823671 PREFETCH ISSUED TO LOWER LEVEL:   11063644  ACCURACY: 7.44484
L1D TIMELY PREFETCHES:     823671 LATE PREFETCHES: 35987 DROPPED PREFETCHES: 0
L1D PREFETCHES SAME FILL-ORIGIN LEVEL: 11063644 DIFFERENT FILL-ORIGIN LEVEL: 0
L1D AVERAGE MISS LATENCY: 103.167 cycles
L1D RQ	ACCESS:   15996117	FORWARD:          0	MERGED:    5223447	TO_CACHE:   10766619
L1D WQ	ACCESS:    1282255	FORWARD:       6084	MERGED:      77282	TO_CACHE:    1204973
L1D PQ	ACCESS:   11490926	FORWARD:          0	MERGED:          1	TO_CACHE:   11490892

L1D UNIQUE REGIONS ACCESSED: 0
L1D REGIONS CONFLICTS: 0
L1D Cross Page Prefetch Requests: 7197318
L1D Same Page Prefetch Requests: 14504024
L1D ROI Sum of L1D PQ occupancy: 335168334
L1D PREFETCHES PUSHED FROM L2C: 0
L1I TOTAL     ACCESS:   10144365  HIT:   10144365  MISS:          0  HIT %:        100  MISS %:          0   MPKI: 0
L1I LOAD      ACCESS:   10144365  HIT:   10144365  MISS:          0  HIT %:        100  MISS %:          0   MPKI: 0
L1I PREFETCH  REQUESTED:          0  ISSUED:          0  USEFUL:          0  USELESS:          0
L1I USEFUL LOAD PREFETCHES:          0 PREFETCH ISSUED TO LOWER LEVEL:          0  ACCURACY: -nan
L1I TIMELY PREFETCHES:          0 LATE PREFETCHES: 0 DROPPED PREFETCHES: 0
L1I PREFETCHES SAME FILL-ORIGIN LEVEL: 0 DIFFERENT FILL-ORIGIN LEVEL: 0
L1I AVERAGE MISS LATENCY: -nan cycles
L1I RQ	ACCESS:   13992194	FORWARD:          0	MERGED:    3847830	TO_CACHE:   10144364

BTB TOTAL     ACCESS:   10746617  HIT:   10743468  MISS:       3149  HIT %:    99.9707  MISS %:  0.0293022   MPKI: 0.06298
BTB BRANCH_DIRECT_JUMP	ACCESS:     328173  HIT:     328155  MISS:         18
BTB BRANCH_INDIRECT	ACCESS:          0  HIT:          0  MISS:          0
BTB BRANCH_CONDITIONAL	ACCESS:   10354958  HIT:   10354903  MISS:         55
BTB BRANCH_DIRECT_CALL	ACCESS:      31743  HIT:      31737  MISS:          6
BTB BRANCH_INDIRECT_CALL	ACCESS:          0  HIT:          0  MISS:          0
BTB BRANCH_RETURN	ACCESS:      31743  HIT:      28673  MISS:       3070
BTB BRANCH_OTHER ACCESS:          0  HIT:          0  MISS:          0

L2C TOTAL     ACCESS:   18327223  HIT:    6781965  MISS:   11545258  HIT %:    37.0049  MISS %:    62.9951   MPKI: 230.905
L2C LOAD      ACCESS:    5781674  HIT:    2180262  MISS:    3601412  HIT %:    37.7099  MISS %:    62.2901   MPKI: 72.0282
L2C DATA LOAD MPKI: 72.0282
L2C INSTRUCTION LOAD MPKI: 0
L2C RFO       ACCESS:      48098  HIT:      17181  MISS:      30917  HIT %:    35.7208  MISS %:    64.2792   MPKI: 0.61834
L2C PREFETCH  ACCESS:   11063652  HIT:    3492873  MISS:    7570779  HIT %:    31.5707  MISS %:    68.4293   MPKI: 151.416
AGUS PREFETCH L1 MISS: 0
L2C DATA PREFETCH MPKI: 151.416
L2C INSTRUCTION PREFETCH MPKI: 0
L2C WRITEBACK ACCESS:     623499  HIT:     623498  MISS:          1  HIT %:    99.9998  MISS %: 0.000160385   MPKI: 2e-05
L2C LOAD TRANSLATION ACCESS:     273166  HIT:     127233  MISS:     145933  HIT %:    46.5772  MISS %:    53.4228   MPKI: 2.91866
L2C TRANSLATION FROM L1D PREFETCHER ACCESS:     537134  HIT:     340918  MISS:     196216  HIT %:    63.4698  MISS %:    36.5302   MPKI: 3.92432
L2C PREFETCH  REQUESTED:          0  ISSUED:          0  USEFUL:    1155421  USELESS:    6611044
L2C USEFUL LOAD PREFETCHES:    1155421 PREFETCH ISSUED TO LOWER LEVEL:    7570777  ACCURACY: 15.2616
L2C TIMELY PREFETCHES:    1155421 LATE PREFETCHES: 0 DROPPED PREFETCHES: 0
L2C PREFETCHES SAME FILL-ORIGIN LEVEL: 0 DIFFERENT FILL-ORIGIN LEVEL: 0
L2C AVERAGE MISS LATENCY: 132.679 cycles
L2C RQ	ACCESS:    6640080	FORWARD:          0	MERGED:          0	TO_CACHE:    6640072
L2C WQ	ACCESS:     623499	FORWARD:         13	MERGED:          0	TO_CACHE:     623499
L2C PQ	ACCESS:   11063644	FORWARD:          0	MERGED:          0	TO_CACHE:   11063639

L2C Instructions Evicting Data 0
L2C Translations Evicting Data 322286
L2C Data Evicting Data 10880837
L2C Instructions Evicting Instructions 0
L2C Translations Evicting Instructions 0
L2C Data Evicting Instructions 0
L2C Instructions Evicting Translations 0
L2C Translations Evicting Translations 19863
L2C Data Evicting Translations 322271
L2C Dense regions hint from L2: 0
PSCL5 TOTAL     ACCESS:     620280  HIT:     620280  MISS:          0  HIT %:        100  MISS %:          0   MPKI: 0
PSCL5 LOAD TRANSLATION ACCESS:     204096  HIT:     204096  MISS:          0  HIT %:        100  MISS %:          0   MPKI: 0
PSCL5 TRANSLATION FROM L1D PREFETCHER ACCESS:     416184  HIT:     416184  MISS:          0  HIT %:        100  MISS %:          0   MPKI: 0
PSCL5 PREFETCH  REQUESTED:          0  ISSUED:          0  USEFUL:          0  USELESS:          0
PSCL5 USEFUL LOAD PREFETCHES:          0 PREFETCH ISSUED TO LOWER LEVEL:          0  ACCURACY: -nan
PSCL5 TIMELY PREFETCHES:          0 LATE PREFETCHES: 0 DROPPED PREFETCHES: 0
PSCL5 PREFETCHES SAME FILL-ORIGIN LEVEL: 0 DIFFERENT FILL-ORIGIN LEVEL: 0

PSCL4 TOTAL     ACCESS:     620280  HIT:     620280  MISS:          0  HIT %:        100  MISS %:          0   MPKI: 0
PSCL4 LOAD TRANSLATION ACCESS:     204096  HIT:     204096  MISS:          0  HIT %:        100  MISS %:          0   MPKI: 0
PSCL4 TRANSLATION FROM L1D PREFETCHER ACCESS:     416184  HIT:     416184  MISS:          0  HIT %:        100  MISS %:          0   MPKI: 0
PSCL4 PREFETCH  REQUESTED:          0  ISSUED:          0  USEFUL:          0  USELESS:          0
PSCL4 USEFUL LOAD PREFETCHES:          0 PREFETCH ISSUED TO LOWER LEVEL:          0  ACCURACY: -nan
PSCL4 TIMELY PREFETCHES:          0 LATE PREFETCHES: 0 DROPPED PREFETCHES: 0
PSCL4 PREFETCHES SAME FILL-ORIGIN LEVEL: 0 DIFFERENT FILL-ORIGIN LEVEL: 0

PSCL3 TOTAL     ACCESS:     620280  HIT:     620280  MISS:          0  HIT %:        100  MISS %:          0   MPKI: 0
PSCL3 LOAD TRANSLATION ACCESS:     204096  HIT:     204096  MISS:          0  HIT %:        100  MISS %:          0   MPKI: 0
PSCL3 TRANSLATION FROM L1D PREFETCHER ACCESS:     416184  HIT:     416184  MISS:          0  HIT %:        100  MISS %:          0   MPKI: 0
PSCL3 PREFETCH  REQUESTED:          0  ISSUED:          0  USEFUL:          0  USELESS:          0
PSCL3 USEFUL LOAD PREFETCHES:          0 PREFETCH ISSUED TO LOWER LEVEL:          0  ACCURACY: -nan
PSCL3 TIMELY PREFETCHES:          0 LATE PREFETCHES: 0 DROPPED PREFETCHES: 0
PSCL3 PREFETCHES SAME FILL-ORIGIN LEVEL: 0 DIFFERENT FILL-ORIGIN LEVEL: 0

PSCL2 TOTAL     ACCESS:     620280  HIT:     430260  MISS:     190020  HIT %:    69.3654  MISS %:    30.6346   MPKI: 3.8004
PSCL2 LOAD TRANSLATION ACCESS:     325046  HIT:     135026  MISS:     190020  HIT %:    41.5406  MISS %:    58.4594   MPKI: 3.8004
PSCL2 TRANSLATION FROM L1D PREFETCHER ACCESS:     295234  HIT:     295234  MISS:          0  HIT %:        100  MISS %:          0   MPKI: 0
PSCL2 PREFETCH  REQUESTED:          0  ISSUED:          0  USEFUL:          0  USELESS:          0
PSCL2 USEFUL LOAD PREFETCHES:          0 PREFETCH ISSUED TO LOWER LEVEL:          0  ACCURACY: -nan
PSCL2 TIMELY PREFETCHES:          0 LATE PREFETCHES: 0 DROPPED PREFETCHES: 0
PSCL2 PREFETCHES SAME FILL-ORIGIN LEVEL: 0 DIFFERENT FILL-ORIGIN LEVEL: 0

LLC TOTAL     ACCESS:   12037132  HIT:    6426825  MISS:    5610307  HIT %:    53.3917  MISS %:    46.6083   MPKI: 112.206
LLC LOAD      ACCESS:    3601410  HIT:    1475364  MISS:    2126046  HIT %:    40.9663  MISS %:    59.0337   MPKI: 42.5209
LLC RFO       ACCESS:      30917  HIT:      10902  MISS:      20015  HIT %:    35.2622  MISS %:    64.7378   MPKI: 0.4003
LLC PREFETCH  ACCESS:    7570775  HIT:    4288038  MISS:    3282737  HIT %:    56.6394  MISS %:    43.3606   MPKI: 65.6547
AGUS PREFETCH L1 MISS: 0
LLC WRITEBACK ACCESS:     491881  HIT:     490846  MISS:       1035  HIT %:    99.7896  MISS %:   0.210417   MPKI: 0.0207
LLC LOAD TRANSLATION ACCESS:     145933  HIT:      80511  MISS:      65422  HIT %:    55.1698  MISS %:    44.8302   MPKI: 1.30844
LLC TRANSLATION FROM L1D PREFETCHER ACCESS:     196216  HIT:      81164  MISS:     115052  HIT %:    41.3646  MISS %:    58.6354   MPKI: 2.30104
LLC PREFETCH  REQUESTED:          0  ISSUED:          0  USEFUL:     282036  USELESS:    3114813
LLC USEFUL LOAD PREFETCHES:     282036 PREFETCH ISSUED TO LOWER LEVEL:    3282737  ACCURACY: 8.59149
LLC TIMELY PREFETCHES:     282036 LATE PREFETCHES: 0 DROPPED PREFETCHES: 0
LLC PREFETCHES SAME FILL-ORIGIN LEVEL: 0 DIFFERENT FILL-ORIGIN LEVEL: 0
LLC AVERAGE MISS LATENCY: 211.037 cycles
LLC RQ	ACCESS:    3974478	FORWARD:          0	MERGED:          0	TO_CACHE:    3974476
LLC WQ	ACCESS:     491881	FORWARD:          5	MERGED:          0	TO_CACHE:     491881
LLC PQ	ACCESS:    7570777	FORWARD:          0	MERGED:          0	TO_CACHE:    7570774

LLC Dense regions hint to LLC: 0

RAW hits: 150575
Loads Generated: 16146695
Loads sent to L1D: 15996117
Stores Generated: 1282255
Stores sent to L1D: 1282255
Major fault: 0 Minor fault: 83728
Allocated PAGES: 83728

stream: 
stream:times selected: 12554487
stream:pref_filled: 10766615
stream:pref_useful: 93762
stream:pref_late: 11227
stream:misses: 2761029
stream:misses_by_poll: 0

CS: 
CS:times selected: 3619044
CS:pref_filled: 2806747
CS:pref_useful: 31
CS:pref_late: 3
CS:misses: 48024
CS:misses_by_poll: 3429

CPLX: 
CPLX:times selected: 12449047
CPLX:pref_filled: 375551
CPLX:pref_useful: 2181
CPLX:pref_late: 32
CPLX:misses: 9897899
CPLX:misses_by_poll: 511

NL_L1: 
NL:times selected: 43215
NL:pref_filled: 33714
NL:pref_useful: 129
NL:pref_late: 30
NL:misses: 44326
NL:misses_by_poll: 0

Coverage: 12.4022
total selections: 28665793
total_filled: 11025986
total_useful: 823671
total_late: 15946
total_polluted: 3940
total_misses_after_warmup: 5837752
conflicts: 9459

test: 9732010
ISB Prefetcher final stats
Training Unit Size: 65
Addr table size: 3977399 3977403


Triggers: 12554491
No Prediction: 4748215 37.8208
Stream end: 7596482
No translation: 3416899494 27216.6
Predictions: 7337352 58.444


Stream divergence: 2134224 16.9997
Stream divergence -- new stream: 0

DRAM Statistics
 CHANNEL 0
 RQ ROW_BUFFER_HIT:     113775  ROW_BUFFER_MISS:    5495310
 DBUS_CONGESTED:        188
 WQ ROW_BUFFER_HIT:     219457  ROW_BUFFER_MISS:     185479  FULL:          0

 AVG_CONGESTED_CYCLE: 5
 All warmup complete: 2
Channel 0 Bank busy for read cycles: 0
Channel 0 Bank busy for write cycles: 0
Channel 0
Rank 0
0banks busy for read cycles: 112781216
0banks busy for write cycles: 54022
1banks busy for read cycles: 147642662
1banks busy for write cycles: 13922372
2banks busy for read cycles: 134072167
2banks busy for write cycles: 4336983
3banks busy for read cycles: 65120816
3banks busy for write cycles: 3090620
4banks busy for read cycles: 30858747
4banks busy for write cycles: 3046250
5banks busy for read cycles: 12490845
5banks busy for write cycles: 3221314
6banks busy for read cycles: 4237556
6banks busy for write cycles: 3538771
7banks busy for read cycles: 960361
7banks busy for write cycles: 4066824
8banks busy for read cycles: 111553
8banks busy for write cycles: 3830291

CPU 0 Branch Prediction Accuracy: 88.5978% MPKI: 27.4129 Average ROB Occupancy at Mispredict: 19.8291
Branch types
NOT_BRANCH: 37978919 75.9578%
BRANCH_DIRECT_JUMP: 328173 0.656346%
BRANCH_INDIRECT: 0 0%
BRANCH_CONDITIONAL: 11629170 23.2583%
BRANCH_DIRECT_CALL: 31743 0.063486%
BRANCH_INDIRECT_CALL: 0 0%
BRANCH_RETURN: 31743 0.063486%
BRANCH_OTHER: 0 0%

DRAM PAGES: 1048576
Allocated PAGES: 83728
