
*** ChampSim Multicore Out-of-Order Simulator ***

Warmup Instructions: 50000000
Simulation Instructions: 50000000
Number of CPUs: 1
LLC sets: 2048
LLC ways: 16
Off-chip DRAM Size: 4096 MB Channels: 1 Width: 64-bit Data Rate: 6400 MT/s
CPU 0 runs ./traces/SPEC-CPU2017/429.mcf-184B.champsimtrace.xz
.xz
CPU 0 Bimodal branch predictor
BTB has LRU replacement policy
ITLB has LRU replacement policy
DTLB has LRU replacement policy
STLB has LRU replacement policy
L1I has LRU replacement policy
L1D has LRU replacement policy
Ideal ISB Prefetching
L2C has LRU replacement policy
LLC has LRU replacement policy
Heartbeat CPU 0 instructions: 10000003 cycles: 3436227 heartbeat IPC: 2.91017 cumulative IPC: 2.91017 (Simulation time: 0 hr 3 min 15 sec) 
Heartbeat CPU 0 instructions: 20000000 cycles: 6840199 heartbeat IPC: 2.93774 cumulative IPC: 2.92389 (Simulation time: 0 hr 7 min 27 sec) 
Heartbeat CPU 0 instructions: 30000001 cycles: 10198732 heartbeat IPC: 2.97749 cumulative IPC: 2.94154 (Simulation time: 0 hr 11 min 4 sec) 
Heartbeat CPU 0 instructions: 40000000 cycles: 13598602 heartbeat IPC: 2.94129 cumulative IPC: 2.94148 (Simulation time: 0 hr 13 min 54 sec) 
Heartbeat CPU 0 instructions: 50000000 cycles: 17000043 heartbeat IPC: 2.93993 cumulative IPC: 2.94117 (Simulation time: 0 hr 16 min 38 sec) 

Warmup complete CPU 0 instructions: 50000004 cycles: 17000044 (Simulation time: 0 hr 16 min 38 sec) 

Heartbeat CPU 0 instructions: 60000000 cycles: 156351381 heartbeat IPC: 0.0717611 cumulative IPC: 0.071761 (Simulation time: 0 hr 20 min 19 sec) 
Heartbeat CPU 0 instructions: 70000000 cycles: 295038788 heartbeat IPC: 0.0721046 cumulative IPC: 0.0719324 (Simulation time: 0 hr 23 min 53 sec) 
Heartbeat CPU 0 instructions: 80000000 cycles: 433900364 heartbeat IPC: 0.0720142 cumulative IPC: 0.0719596 (Simulation time: 0 hr 27 min 30 sec) 
Heartbeat CPU 0 instructions: 90000000 cycles: 552534475 heartbeat IPC: 0.0842928 cumulative IPC: 0.0746917 (Simulation time: 0 hr 30 min 36 sec) 
Heartbeat CPU 0 instructions: 100000000 cycles: 675588792 heartbeat IPC: 0.0812649 cumulative IPC: 0.0759199 (Simulation time: 0 hr 33 min 51 sec) 
Finished CPU 0 instructions: 50000000 cycles: 658588758 cumulative IPC: 0.0759199 (Simulation time: 0 hr 33 min 51 sec) 

ChampSim completed all CPUs

Region of Interest Statistics

CPU 0 cumulative IPC: 0.0759199 instructions: 50000000 cycles: 658588758
ITLB TOTAL     ACCESS:    9251187  HIT:    9251187  MISS:          0  HIT %:        100  MISS %:          0   MPKI: 0
ITLB LOAD TRANSLATION ACCESS:    9251187  HIT:    9251187  MISS:          0  HIT %:        100  MISS %:          0   MPKI: 0
ITLB PREFETCH  REQUESTED:          0  ISSUED:          0  USEFUL:          0  USELESS:          0
ITLB USEFUL LOAD PREFETCHES:          0 PREFETCH ISSUED TO LOWER LEVEL:          0  ACCURACY: -nan
ITLB TIMELY PREFETCHES:          0 LATE PREFETCHES: 0 DROPPED PREFETCHES: 0
ITLB PREFETCHES SAME FILL-ORIGIN LEVEL: 0 DIFFERENT FILL-ORIGIN LEVEL: 0
ITLB AVERAGE MISS LATENCY: -nan cycles
ITLB RQ	ACCESS:   10144923	FORWARD:          0	MERGED:     893737	TO_CACHE:    9251186

DTLB TOTAL     ACCESS:   11064476  HIT:    5380313  MISS:    5684163  HIT %:    48.6269  MISS %:    51.3731   MPKI: 113.683
DTLB LOAD TRANSLATION ACCESS:   11064476  HIT:    5380313  MISS:    5684163  HIT %:    48.6269  MISS %:    51.3731   MPKI: 113.683
DTLB PREFETCH  REQUESTED:          0  ISSUED:          0  USEFUL:          0  USELESS:          0
DTLB USEFUL LOAD PREFETCHES:          0 PREFETCH ISSUED TO LOWER LEVEL:          0  ACCURACY: -nan
DTLB TIMELY PREFETCHES:          0 LATE PREFETCHES: 0 DROPPED PREFETCHES: 0
DTLB PREFETCHES SAME FILL-ORIGIN LEVEL: 0 DIFFERENT FILL-ORIGIN LEVEL: 0
DTLB AVERAGE MISS LATENCY: 17.5572 cycles
DTLB RQ	ACCESS:   11954920	FORWARD:          0	MERGED:     883641	TO_CACHE:   11071279

STLB TOTAL     ACCESS:    5684163  HIT:    5316380  MISS:     367783  HIT %:    93.5297  MISS %:    6.47031   MPKI: 7.35566
STLB LOAD TRANSLATION ACCESS:    5684163  HIT:    5316380  MISS:     367783  HIT %:    93.5297  MISS %:    6.47031   MPKI: 7.35566
STLB PREFETCH  REQUESTED:          0  ISSUED:          0  USEFUL:          0  USELESS:          0
STLB USEFUL LOAD PREFETCHES:          0 PREFETCH ISSUED TO LOWER LEVEL:          0  ACCURACY: -nan
STLB TIMELY PREFETCHES:          0 LATE PREFETCHES: 0 DROPPED PREFETCHES: 0
STLB PREFETCHES SAME FILL-ORIGIN LEVEL: 0 DIFFERENT FILL-ORIGIN LEVEL: 0
STLB AVERAGE MISS LATENCY: 131.184 cycles
STLB RQ	ACCESS:    5684163	FORWARD:          0	MERGED:          0	TO_CACHE:    5684163

STLB Hit, L1D data hit: 0
STLB Hit, L2C data hit: 0
STLB Hit, LLC data hit: 0
STLB Hit, LLC data miss: 0
STLB STLB hints to L2: 0
L1D TOTAL     ACCESS:   11925556  HIT:    5556170  MISS:    6369386  HIT %:    46.5904  MISS %:    53.4096   MPKI: 127.388
L1D LOAD      ACCESS:   10724491  HIT:    4412166  MISS:    6312325  HIT %:     41.141  MISS %:     58.859   MPKI: 126.246
L1D RFO       ACCESS:    1201065  HIT:    1144004  MISS:      57061  HIT %:    95.2491  MISS %:    4.75087   MPKI: 1.14122
L1D PREFETCH  REQUESTED:          0  ISSUED:          0  USEFUL:          0  USELESS:          0
L1D USEFUL LOAD PREFETCHES:          0 PREFETCH ISSUED TO LOWER LEVEL:          0  ACCURACY: -nan
L1D TIMELY PREFETCHES:          0 LATE PREFETCHES: 0 DROPPED PREFETCHES: 0
L1D PREFETCHES SAME FILL-ORIGIN LEVEL: 0 DIFFERENT FILL-ORIGIN LEVEL: 0
L1D AVERAGE MISS LATENCY: 152.199 cycles
L1D RQ	ACCESS:   15973403	FORWARD:          0	MERGED:    5218433	TO_CACHE:   10749938
L1D WQ	ACCESS:    1282255	FORWARD:       5032	MERGED:      77273	TO_CACHE:    1204982

L1D UNIQUE REGIONS ACCESSED: 0
L1D REGIONS CONFLICTS: 0
L1D Cross Page Prefetch Requests: 0
L1D Same Page Prefetch Requests: 0
L1D ROI Sum of L1D PQ occupancy: 0
L1D PREFETCHES PUSHED FROM L2C: 0
L1I TOTAL     ACCESS:   10144924  HIT:   10144924  MISS:          0  HIT %:        100  MISS %:          0   MPKI: 0
L1I LOAD      ACCESS:   10144924  HIT:   10144924  MISS:          0  HIT %:        100  MISS %:          0   MPKI: 0
L1I PREFETCH  REQUESTED:          0  ISSUED:          0  USEFUL:          0  USELESS:          0
L1I USEFUL LOAD PREFETCHES:          0 PREFETCH ISSUED TO LOWER LEVEL:          0  ACCURACY: -nan
L1I TIMELY PREFETCHES:          0 LATE PREFETCHES: 0 DROPPED PREFETCHES: 0
L1I PREFETCHES SAME FILL-ORIGIN LEVEL: 0 DIFFERENT FILL-ORIGIN LEVEL: 0
L1I AVERAGE MISS LATENCY: -nan cycles
L1I RQ	ACCESS:   13995963	FORWARD:          0	MERGED:    3851040	TO_CACHE:   10144923

BTB TOTAL     ACCESS:   10746617  HIT:   10743468  MISS:       3149  HIT %:    99.9707  MISS %:  0.0293022   MPKI: 0.06298
BTB BRANCH_DIRECT_JUMP	ACCESS:     328173  HIT:     328155  MISS:         18
BTB BRANCH_INDIRECT	ACCESS:          0  HIT:          0  MISS:          0
BTB BRANCH_CONDITIONAL	ACCESS:   10354958  HIT:   10354903  MISS:         55
BTB BRANCH_DIRECT_CALL	ACCESS:      31743  HIT:      31737  MISS:          6
BTB BRANCH_INDIRECT_CALL	ACCESS:          0  HIT:          0  MISS:          0
BTB BRANCH_RETURN	ACCESS:      31743  HIT:      28673  MISS:       3070
BTB BRANCH_OTHER ACCESS:          0  HIT:          0  MISS:          0

L2C TOTAL     ACCESS:   10676137  HIT:    3837951  MISS:    6838186  HIT %:    35.9489  MISS %:    64.0511   MPKI: 136.764
L2C LOAD      ACCESS:    6312299  HIT:    2245280  MISS:    4067019  HIT %:    35.5699  MISS %:    64.4301   MPKI: 81.3404
L2C DATA LOAD MPKI: 81.3404
L2C INSTRUCTION LOAD MPKI: 0
L2C RFO       ACCESS:      57061  HIT:      19160  MISS:      37901  HIT %:    33.5781  MISS %:    66.4219   MPKI: 0.75802
L2C PREFETCH  ACCESS:    3201320  HIT:     714851  MISS:    2486469  HIT %:    22.3299  MISS %:    77.6701   MPKI: 49.7294
AGUS PREFETCH L1 MISS: 0
L2C DATA PREFETCH MPKI: 49.7294
L2C INSTRUCTION PREFETCH MPKI: 0
L2C WRITEBACK ACCESS:     595581  HIT:     595384  MISS:        197  HIT %:    99.9669  MISS %:  0.0330769   MPKI: 0.00394
L2C LOAD TRANSLATION ACCESS:     509876  HIT:     263276  MISS:     246600  HIT %:    51.6353  MISS %:    48.3647   MPKI: 4.932
L2C PREFETCH  REQUESTED:    3221459  ISSUED:    3221165  USEFUL:     736693  USELESS:    1749645
L2C USEFUL LOAD PREFETCHES:     736693 PREFETCH ISSUED TO LOWER LEVEL:    2494131  ACCURACY: 29.5371
L2C TIMELY PREFETCHES:     736693 LATE PREFETCHES: 7663 DROPPED PREFETCHES: 0
L2C PREFETCHES SAME FILL-ORIGIN LEVEL: 2494131 DIFFERENT FILL-ORIGIN LEVEL: 0
L2C AVERAGE MISS LATENCY: 183.646 cycles
L2C RQ	ACCESS:    6879261	FORWARD:          0	MERGED:          0	TO_CACHE:    6879236
L2C WQ	ACCESS:     595581	FORWARD:         25	MERGED:          0	TO_CACHE:     595581
L2C PQ	ACCESS:    3221165	FORWARD:          0	MERGED:       1258	TO_CACHE:    3219907

L2C Instructions Evicting Data 0
L2C Translations Evicting Data 230168
L2C Data Evicting Data 6361240
L2C Instructions Evicting Instructions 0
L2C Translations Evicting Instructions 0
L2C Data Evicting Instructions 0
L2C Instructions Evicting Translations 0
L2C Translations Evicting Translations 16432
L2C Data Evicting Translations 230149
L2C Dense regions hint from L2: 0
PSCL5 TOTAL     ACCESS:     367783  HIT:     367783  MISS:          0  HIT %:        100  MISS %:          0   MPKI: 0
PSCL5 LOAD TRANSLATION ACCESS:     367783  HIT:     367783  MISS:          0  HIT %:        100  MISS %:          0   MPKI: 0
PSCL5 PREFETCH  REQUESTED:          0  ISSUED:          0  USEFUL:          0  USELESS:          0
PSCL5 USEFUL LOAD PREFETCHES:          0 PREFETCH ISSUED TO LOWER LEVEL:          0  ACCURACY: -nan
PSCL5 TIMELY PREFETCHES:          0 LATE PREFETCHES: 0 DROPPED PREFETCHES: 0
PSCL5 PREFETCHES SAME FILL-ORIGIN LEVEL: 0 DIFFERENT FILL-ORIGIN LEVEL: 0

PSCL4 TOTAL     ACCESS:     367783  HIT:     367783  MISS:          0  HIT %:        100  MISS %:          0   MPKI: 0
PSCL4 LOAD TRANSLATION ACCESS:     367783  HIT:     367783  MISS:          0  HIT %:        100  MISS %:          0   MPKI: 0
PSCL4 PREFETCH  REQUESTED:          0  ISSUED:          0  USEFUL:          0  USELESS:          0
PSCL4 USEFUL LOAD PREFETCHES:          0 PREFETCH ISSUED TO LOWER LEVEL:          0  ACCURACY: -nan
PSCL4 TIMELY PREFETCHES:          0 LATE PREFETCHES: 0 DROPPED PREFETCHES: 0
PSCL4 PREFETCHES SAME FILL-ORIGIN LEVEL: 0 DIFFERENT FILL-ORIGIN LEVEL: 0

PSCL3 TOTAL     ACCESS:     367783  HIT:     367783  MISS:          0  HIT %:        100  MISS %:          0   MPKI: 0
PSCL3 LOAD TRANSLATION ACCESS:     367783  HIT:     367783  MISS:          0  HIT %:        100  MISS %:          0   MPKI: 0
PSCL3 PREFETCH  REQUESTED:          0  ISSUED:          0  USEFUL:          0  USELESS:          0
PSCL3 USEFUL LOAD PREFETCHES:          0 PREFETCH ISSUED TO LOWER LEVEL:          0  ACCURACY: -nan
PSCL3 TIMELY PREFETCHES:          0 LATE PREFETCHES: 0 DROPPED PREFETCHES: 0
PSCL3 PREFETCHES SAME FILL-ORIGIN LEVEL: 0 DIFFERENT FILL-ORIGIN LEVEL: 0

PSCL2 TOTAL     ACCESS:     367783  HIT:     225690  MISS:     142093  HIT %:     61.365  MISS %:     38.635   MPKI: 2.84186
PSCL2 LOAD TRANSLATION ACCESS:     367783  HIT:     225690  MISS:     142093  HIT %:     61.365  MISS %:     38.635   MPKI: 2.84186
PSCL2 PREFETCH  REQUESTED:          0  ISSUED:          0  USEFUL:          0  USELESS:          0
PSCL2 USEFUL LOAD PREFETCHES:          0 PREFETCH ISSUED TO LOWER LEVEL:          0  ACCURACY: -nan
PSCL2 TIMELY PREFETCHES:          0 LATE PREFETCHES: 0 DROPPED PREFETCHES: 0
PSCL2 PREFETCHES SAME FILL-ORIGIN LEVEL: 0 DIFFERENT FILL-ORIGIN LEVEL: 0

LLC TOTAL     ACCESS:    7291186  HIT:    3223297  MISS:    4067889  HIT %:    44.2081  MISS %:    55.7919   MPKI: 81.3578
LLC LOAD      ACCESS:    4059366  HIT:    1283980  MISS:    2775386  HIT %:    31.6301  MISS %:    68.3699   MPKI: 55.5077
LLC RFO       ACCESS:      37890  HIT:      11251  MISS:      26639  HIT %:    29.6939  MISS %:    70.3061   MPKI: 0.53278
LLC PREFETCH  ACCESS:    2494132  HIT:    1381053  MISS:    1113079  HIT %:    55.3721  MISS %:    44.6279   MPKI: 22.2616
AGUS PREFETCH L1 MISS: 0
LLC WRITEBACK ACCESS:     453198  HIT:     450479  MISS:       2719  HIT %:       99.4  MISS %:   0.599959   MPKI: 0.05438
LLC LOAD TRANSLATION ACCESS:     246600  HIT:      96534  MISS:     150066  HIT %:     39.146  MISS %:     60.854   MPKI: 3.00132
LLC PREFETCH  REQUESTED:          0  ISSUED:          0  USEFUL:     136378  USELESS:     975124
LLC USEFUL LOAD PREFETCHES:     136378 PREFETCH ISSUED TO LOWER LEVEL:    1113079  ACCURACY: 12.2523
LLC TIMELY PREFETCHES:     136378 LATE PREFETCHES: 0 DROPPED PREFETCHES: 0
LLC PREFETCHES SAME FILL-ORIGIN LEVEL: 0 DIFFERENT FILL-ORIGIN LEVEL: 0
LLC AVERAGE MISS LATENCY: 258.114 cycles
LLC RQ	ACCESS:    4343857	FORWARD:          0	MERGED:          0	TO_CACHE:    4343856
LLC WQ	ACCESS:     453198	FORWARD:          1	MERGED:          0	TO_CACHE:     453198
LLC PQ	ACCESS:    2494131	FORWARD:          0	MERGED:          0	TO_CACHE:    2494131

LLC Dense regions hint to LLC: 0

RAW hits: 173285
Loads Generated: 16146691
Loads sent to L1D: 15973403
Stores Generated: 1282255
Stores sent to L1D: 1282255
Major fault: 0 Minor fault: 83728
Allocated PAGES: 83728
Prefetcher final stats
Training Unit Size: 65
Addr table size: 3978449 3978454


Triggers: 8850465
No Prediction: 4438833 50.1537
Stream end: 4242135
No translation: 14988702 169.355
Predictions: 6666590 75.3247


Stream divergence: 1289176 14.5662
Stream divergence -- new stream: 0

DRAM Statistics
 CHANNEL 0
 RQ ROW_BUFFER_HIT:      92436  ROW_BUFFER_MISS:    3972676
 DBUS_CONGESTED:         34
 WQ ROW_BUFFER_HIT:     197405  ROW_BUFFER_MISS:     201366  FULL:          0

 AVG_CONGESTED_CYCLE: 4
 All warmup complete: 2
Channel 0 Bank busy for read cycles: 0
Channel 0 Bank busy for write cycles: 0
Channel 0
Rank 0
0banks busy for read cycles: 186284720
0banks busy for write cycles: 110121
1banks busy for read cycles: 325729781
1banks busy for write cycles: 23457246
2banks busy for read cycles: 61736779
2banks busy for write cycles: 8636901
3banks busy for read cycles: 20531207
3banks busy for write cycles: 5310128
4banks busy for read cycles: 8056339
4banks busy for write cycles: 3607298
5banks busy for read cycles: 4823122
5banks busy for write cycles: 2388691
6banks busy for read cycles: 3520414
6banks busy for write cycles: 1476783
7banks busy for read cycles: 1476769
7banks busy for write cycles: 821530
8banks busy for read cycles: 243667
8banks busy for write cycles: 377263

CPU 0 Branch Prediction Accuracy: 88.5978% MPKI: 27.4129 Average ROB Occupancy at Mispredict: 20.6215
Branch types
NOT_BRANCH: 37978919 75.9578%
BRANCH_DIRECT_JUMP: 328173 0.656346%
BRANCH_INDIRECT: 0 0%
BRANCH_CONDITIONAL: 11629170 23.2583%
BRANCH_DIRECT_CALL: 31743 0.063486%
BRANCH_INDIRECT_CALL: 0 0%
BRANCH_RETURN: 31743 0.063486%
BRANCH_OTHER: 0 0%

DRAM PAGES: 1048576
Allocated PAGES: 83728
