
*** ChampSim Multicore Out-of-Order Simulator ***

Warmup Instructions: 50000000
Simulation Instructions: 50000000
Number of CPUs: 1
LLC sets: 2048
LLC ways: 16
Off-chip DRAM Size: 4096 MB Channels: 1 Width: 64-bit Data Rate: 6400 MT/s
CPU 0 runs ./traces/SPEC-CPU2017/429.mcf-184B.champsimtrace.xz
.xz
CPU 0 Bimodal branch predictor
BTB has LRU replacement policy
ITLB has LRU replacement policy
DTLB has LRU replacement policy
STLB has LRU replacement policy
L1I has LRU replacement policy
L1D has LRU replacement policy
L2C has LRU replacement policy
LLC has LRU replacement policy
Heartbeat CPU 0 instructions: 10000003 cycles: 3891091 heartbeat IPC: 2.56997 cumulative IPC: 2.56997 (Simulation time: 0 hr 9 min 42 sec) 
Heartbeat CPU 0 instructions: 20000000 cycles: 7755243 heartbeat IPC: 2.58789 cumulative IPC: 2.5789 (Simulation time: 0 hr 21 min 6 sec) 
Heartbeat CPU 0 instructions: 30000001 cycles: 11635681 heartbeat IPC: 2.57703 cumulative IPC: 2.57828 (Simulation time: 0 hr 28 min 42 sec) 
Heartbeat CPU 0 instructions: 40000000 cycles: 15482896 heartbeat IPC: 2.59928 cumulative IPC: 2.5835 (Simulation time: 0 hr 36 min 23 sec) 
Heartbeat CPU 0 instructions: 50000000 cycles: 19340647 heartbeat IPC: 2.59218 cumulative IPC: 2.58523 (Simulation time: 0 hr 44 min 3 sec) 

Warmup complete CPU 0 instructions: 50000004 cycles: 19340648 (Simulation time: 0 hr 44 min 3 sec) 

Heartbeat CPU 0 instructions: 60000000 cycles: 132168128 heartbeat IPC: 0.0886309 cumulative IPC: 0.0886309 (Simulation time: 0 hr 48 min 39 sec) 
Heartbeat CPU 0 instructions: 70000000 cycles: 247421031 heartbeat IPC: 0.0867657 cumulative IPC: 0.0876884 (Simulation time: 0 hr 53 min 19 sec) 
Heartbeat CPU 0 instructions: 80000000 cycles: 361273694 heartbeat IPC: 0.0878328 cumulative IPC: 0.0877365 (Simulation time: 0 hr 58 min 2 sec) 
Heartbeat CPU 0 instructions: 90000000 cycles: 461440314 heartbeat IPC: 0.0998337 cumulative IPC: 0.0904773 (Simulation time: 1 hr 3 min 2 sec) 
Heartbeat CPU 0 instructions: 100000000 cycles: 565326226 heartbeat IPC: 0.0962594 cumulative IPC: 0.0915775 (Simulation time: 1 hr 8 min 0 sec) 
Finished CPU 0 instructions: 50000000 cycles: 545985588 cumulative IPC: 0.0915775 (Simulation time: 1 hr 8 min 0 sec) 

ChampSim completed all CPUs

Region of Interest Statistics

CPU 0 cumulative IPC: 0.0915775 instructions: 50000000 cycles: 545985588
ITLB TOTAL     ACCESS:    9250941  HIT:    9250941  MISS:          0  HIT %:        100  MISS %:          0   MPKI: 0
ITLB LOAD TRANSLATION ACCESS:    9250941  HIT:    9250941  MISS:          0  HIT %:        100  MISS %:          0   MPKI: 0
ITLB PREFETCH  REQUESTED:          0  ISSUED:          0  USEFUL:          0  USELESS:          0
ITLB USEFUL LOAD PREFETCHES:          0 PREFETCH ISSUED TO LOWER LEVEL:          0  ACCURACY: -nan
ITLB TIMELY PREFETCHES:          0 LATE PREFETCHES: 0 DROPPED PREFETCHES: 0
ITLB PREFETCHES SAME FILL-ORIGIN LEVEL: 0 DIFFERENT FILL-ORIGIN LEVEL: 0
ITLB AVERAGE MISS LATENCY: -nan cycles
ITLB RQ	ACCESS:   10142736	FORWARD:          0	MERGED:     891796	TO_CACHE:    9250940

DTLB TOTAL     ACCESS:   11084058  HIT:    5400788  MISS:    5683270  HIT %:    48.7257  MISS %:    51.2743   MPKI: 113.665
DTLB LOAD TRANSLATION ACCESS:   11084058  HIT:    5400788  MISS:    5683270  HIT %:    48.7257  MISS %:    51.2743   MPKI: 113.665
DTLB PREFETCH  REQUESTED:          0  ISSUED:          0  USEFUL:          0  USELESS:          0
DTLB USEFUL LOAD PREFETCHES:          0 PREFETCH ISSUED TO LOWER LEVEL:          0  ACCURACY: -nan
DTLB TIMELY PREFETCHES:          0 LATE PREFETCHES: 0 DROPPED PREFETCHES: 0
DTLB PREFETCHES SAME FILL-ORIGIN LEVEL: 0 DIFFERENT FILL-ORIGIN LEVEL: 0
DTLB AVERAGE MISS LATENCY: 14.1511 cycles
DTLB RQ	ACCESS:   11968939	FORWARD:          0	MERGED:     873437	TO_CACHE:   11095502

STLB TOTAL     ACCESS:   16030206  HIT:   15529494  MISS:     500712  HIT %:    96.8764  MISS %:    3.12355   MPKI: 10.0142
STLB LOAD TRANSLATION ACCESS:    5683269  HIT:    5490793  MISS:     192476  HIT %:    96.6133  MISS %:    3.38671   MPKI: 3.84952
STLB TRANSLATION FROM L1D PREFETCHER ACCESS:   10346937  HIT:   10038701  MISS:     308236  HIT %:     97.021  MISS %:    2.97901   MPKI: 6.16472
STLB PREFETCH  REQUESTED:          0  ISSUED:          0  USEFUL:     254626  USELESS:      53597
STLB USEFUL LOAD PREFETCHES:     254626 PREFETCH ISSUED TO LOWER LEVEL:          0  ACCURACY: inf
STLB TIMELY PREFETCHES:     254626 LATE PREFETCHES: 7750 DROPPED PREFETCHES: 0
STLB PREFETCHES SAME FILL-ORIGIN LEVEL: 0 DIFFERENT FILL-ORIGIN LEVEL: 0
STLB AVERAGE MISS LATENCY: 138.426 cycles
STLB RQ	ACCESS:   18225436	FORWARD:          0	MERGED:    2185970	TO_CACHE:   16039466

STLB Hit, L1D data hit: 0
STLB Hit, L2C data hit: 0
STLB Hit, LLC data hit: 0
STLB Hit, LLC data miss: 0
STLB STLB hints to L2: 0
L1D TOTAL     ACCESS:   23847068  HIT:    7635833  MISS:   16211235  HIT %:      32.02  MISS %:      67.98   MPKI: 324.225
L1D LOAD      ACCESS:   10747345  HIT:    4856540  MISS:    5890805  HIT %:    45.1883  MISS %:    54.8117   MPKI: 117.816
L1D RFO       ACCESS:    1199010  HIT:    1152141  MISS:      46869  HIT %:     96.091  MISS %:    3.90897   MPKI: 0.93738
L1D PREFETCH  ACCESS:   11900713  HIT:    1627152  MISS:   10273561  HIT %:    13.6727  MISS %:    86.3273   MPKI: 205.471
AGUS PREFETCH L1 MISS: 0
L1D PREFETCH  REQUESTED:   25219515  ISSUED:   25084596  USEFUL:     758771  USELESS:    9514749
L1D USEFUL LOAD PREFETCHES:     758771 PREFETCH ISSUED TO LOWER LEVEL:   10374802  ACCURACY: 7.31359
L1D TIMELY PREFETCHES:     758771 LATE PREFETCHES: 96242 DROPPED PREFETCHES: 0
L1D PREFETCHES SAME FILL-ORIGIN LEVEL: 10374802 DIFFERENT FILL-ORIGIN LEVEL: 0
L1D AVERAGE MISS LATENCY: 108.476 cycles
L1D RQ	ACCESS:   15993028	FORWARD:          0	MERGED:    5223133	TO_CACHE:   10763974
L1D WQ	ACCESS:    1282255	FORWARD:       6177	MERGED:      77290	TO_CACHE:    1204965
L1D PQ	ACCESS:   12542426	FORWARD:          0	MERGED:          0	TO_CACHE:   12542170

L1D UNIQUE REGIONS ACCESSED: 0
L1D REGIONS CONFLICTS: 0
L1D Cross Page Prefetch Requests: 7494345
L1D Same Page Prefetch Requests: 17118636
L1D ROI Sum of L1D PQ occupancy: 260373770
L1D PREFETCHES PUSHED FROM L2C: 0
L1I TOTAL     ACCESS:   10142737  HIT:   10142737  MISS:          0  HIT %:        100  MISS %:          0   MPKI: 0
L1I LOAD      ACCESS:   10142737  HIT:   10142737  MISS:          0  HIT %:        100  MISS %:          0   MPKI: 0
L1I PREFETCH  REQUESTED:          0  ISSUED:          0  USEFUL:          0  USELESS:          0
L1I USEFUL LOAD PREFETCHES:          0 PREFETCH ISSUED TO LOWER LEVEL:          0  ACCURACY: -nan
L1I TIMELY PREFETCHES:          0 LATE PREFETCHES: 0 DROPPED PREFETCHES: 0
L1I PREFETCHES SAME FILL-ORIGIN LEVEL: 0 DIFFERENT FILL-ORIGIN LEVEL: 0
L1I AVERAGE MISS LATENCY: -nan cycles
L1I RQ	ACCESS:   13990504	FORWARD:          0	MERGED:    3847768	TO_CACHE:   10142736

BTB TOTAL     ACCESS:   10746617  HIT:   10743468  MISS:       3149  HIT %:    99.9707  MISS %:  0.0293022   MPKI: 0.06298
BTB BRANCH_DIRECT_JUMP	ACCESS:     328173  HIT:     328155  MISS:         18
BTB BRANCH_INDIRECT	ACCESS:          0  HIT:          0  MISS:          0
BTB BRANCH_CONDITIONAL	ACCESS:   10354958  HIT:   10354903  MISS:         55
BTB BRANCH_DIRECT_CALL	ACCESS:      31743  HIT:      31737  MISS:          6
BTB BRANCH_INDIRECT_CALL	ACCESS:          0  HIT:          0  MISS:          0
BTB BRANCH_RETURN	ACCESS:      31743  HIT:      28673  MISS:       3070
BTB BRANCH_OTHER ACCESS:          0  HIT:          0  MISS:          0

L2C TOTAL     ACCESS:   17496485  HIT:    6346939  MISS:   11149546  HIT %:    36.2755  MISS %:    63.7245   MPKI: 222.991
L2C LOAD      ACCESS:    5794549  HIT:    2226389  MISS:    3568160  HIT %:    38.4221  MISS %:    61.5779   MPKI: 71.3632
L2C DATA LOAD MPKI: 71.3632
L2C INSTRUCTION LOAD MPKI: 0
L2C RFO       ACCESS:      41860  HIT:      15756  MISS:      26104  HIT %:    37.6398  MISS %:    62.3602   MPKI: 0.52208
L2C PREFETCH  ACCESS:   10374803  HIT:    3128362  MISS:    7246441  HIT %:    30.1535  MISS %:    69.8465   MPKI: 144.929
AGUS PREFETCH L1 MISS: 0
L2C DATA PREFETCH MPKI: 144.929
L2C INSTRUCTION PREFETCH MPKI: 0
L2C WRITEBACK ACCESS:     623784  HIT:     623769  MISS:         15  HIT %:    99.9976  MISS %: 0.00240468   MPKI: 0.0003
L2C LOAD TRANSLATION ACCESS:     247364  HIT:     103471  MISS:     143893  HIT %:    41.8294  MISS %:    58.1706   MPKI: 2.87786
L2C TRANSLATION FROM L1D PREFETCHER ACCESS:     414125  HIT:     249192  MISS:     164933  HIT %:    60.1731  MISS %:    39.8269   MPKI: 3.29866
L2C PREFETCH  REQUESTED:          0  ISSUED:          0  USEFUL:    1119553  USELESS:    6291293
L2C USEFUL LOAD PREFETCHES:    1119553 PREFETCH ISSUED TO LOWER LEVEL:    7246440  ACCURACY: 15.4497
L2C TIMELY PREFETCHES:    1119553 LATE PREFETCHES: 0 DROPPED PREFETCHES: 0
L2C PREFETCHES SAME FILL-ORIGIN LEVEL: 0 DIFFERENT FILL-ORIGIN LEVEL: 0
L2C AVERAGE MISS LATENCY: 139.567 cycles
L2C RQ	ACCESS:    6497913	FORWARD:          0	MERGED:          0	TO_CACHE:    6497898
L2C WQ	ACCESS:     623784	FORWARD:         21	MERGED:          0	TO_CACHE:     623784
L2C PQ	ACCESS:   10374802	FORWARD:          0	MERGED:          0	TO_CACHE:   10374796

L2C Instructions Evicting Data 0
L2C Translations Evicting Data 292137
L2C Data Evicting Data 10548585
L2C Instructions Evicting Instructions 0
L2C Translations Evicting Instructions 0
L2C Data Evicting Instructions 0
L2C Instructions Evicting Translations 0
L2C Translations Evicting Translations 16689
L2C Data Evicting Translations 292120
L2C Dense regions hint from L2: 0
PSCL5 TOTAL     ACCESS:     500712  HIT:     500712  MISS:          0  HIT %:        100  MISS %:          0   MPKI: 0
PSCL5 LOAD TRANSLATION ACCESS:     184726  HIT:     184726  MISS:          0  HIT %:        100  MISS %:          0   MPKI: 0
PSCL5 TRANSLATION FROM L1D PREFETCHER ACCESS:     315986  HIT:     315986  MISS:          0  HIT %:        100  MISS %:          0   MPKI: 0
PSCL5 PREFETCH  REQUESTED:          0  ISSUED:          0  USEFUL:          0  USELESS:          0
PSCL5 USEFUL LOAD PREFETCHES:          0 PREFETCH ISSUED TO LOWER LEVEL:          0  ACCURACY: -nan
PSCL5 TIMELY PREFETCHES:          0 LATE PREFETCHES: 0 DROPPED PREFETCHES: 0
PSCL5 PREFETCHES SAME FILL-ORIGIN LEVEL: 0 DIFFERENT FILL-ORIGIN LEVEL: 0

PSCL4 TOTAL     ACCESS:     500712  HIT:     500712  MISS:          0  HIT %:        100  MISS %:          0   MPKI: 0
PSCL4 LOAD TRANSLATION ACCESS:     184726  HIT:     184726  MISS:          0  HIT %:        100  MISS %:          0   MPKI: 0
PSCL4 TRANSLATION FROM L1D PREFETCHER ACCESS:     315986  HIT:     315986  MISS:          0  HIT %:        100  MISS %:          0   MPKI: 0
PSCL4 PREFETCH  REQUESTED:          0  ISSUED:          0  USEFUL:          0  USELESS:          0
PSCL4 USEFUL LOAD PREFETCHES:          0 PREFETCH ISSUED TO LOWER LEVEL:          0  ACCURACY: -nan
PSCL4 TIMELY PREFETCHES:          0 LATE PREFETCHES: 0 DROPPED PREFETCHES: 0
PSCL4 PREFETCHES SAME FILL-ORIGIN LEVEL: 0 DIFFERENT FILL-ORIGIN LEVEL: 0

PSCL3 TOTAL     ACCESS:     500712  HIT:     500712  MISS:          0  HIT %:        100  MISS %:          0   MPKI: 0
PSCL3 LOAD TRANSLATION ACCESS:     184726  HIT:     184726  MISS:          0  HIT %:        100  MISS %:          0   MPKI: 0
PSCL3 TRANSLATION FROM L1D PREFETCHER ACCESS:     315986  HIT:     315986  MISS:          0  HIT %:        100  MISS %:          0   MPKI: 0
PSCL3 PREFETCH  REQUESTED:          0  ISSUED:          0  USEFUL:          0  USELESS:          0
PSCL3 USEFUL LOAD PREFETCHES:          0 PREFETCH ISSUED TO LOWER LEVEL:          0  ACCURACY: -nan
PSCL3 TIMELY PREFETCHES:          0 LATE PREFETCHES: 0 DROPPED PREFETCHES: 0
PSCL3 PREFETCHES SAME FILL-ORIGIN LEVEL: 0 DIFFERENT FILL-ORIGIN LEVEL: 0

PSCL2 TOTAL     ACCESS:     500712  HIT:     339935  MISS:     160777  HIT %:    67.8903  MISS %:    32.1097   MPKI: 3.21554
PSCL2 LOAD TRANSLATION ACCESS:     282865  HIT:     122088  MISS:     160777  HIT %:    43.1612  MISS %:    56.8388   MPKI: 3.21554
PSCL2 TRANSLATION FROM L1D PREFETCHER ACCESS:     217847  HIT:     217847  MISS:          0  HIT %:        100  MISS %:          0   MPKI: 0
PSCL2 PREFETCH  REQUESTED:          0  ISSUED:          0  USEFUL:          0  USELESS:          0
PSCL2 USEFUL LOAD PREFETCHES:          0 PREFETCH ISSUED TO LOWER LEVEL:          0  ACCURACY: -nan
PSCL2 TIMELY PREFETCHES:          0 LATE PREFETCHES: 0 DROPPED PREFETCHES: 0
PSCL2 PREFETCHES SAME FILL-ORIGIN LEVEL: 0 DIFFERENT FILL-ORIGIN LEVEL: 0

LLC TOTAL     ACCESS:   11637432  HIT:    5851894  MISS:    5785538  HIT %:    50.2851  MISS %:    49.7149   MPKI: 115.711
LLC LOAD      ACCESS:    3568159  HIT:    1497836  MISS:    2070323  HIT %:    41.9778  MISS %:    58.0222   MPKI: 41.4065
LLC RFO       ACCESS:      26104  HIT:       9379  MISS:      16725  HIT %:    35.9294  MISS %:    64.0706   MPKI: 0.3345
LLC PREFETCH  ACCESS:    7246436  HIT:    3715093  MISS:    3531343  HIT %:    51.2679  MISS %:    48.7321   MPKI: 70.6269
AGUS PREFETCH L1 MISS: 0
LLC WRITEBACK ACCESS:     487907  HIT:     486664  MISS:       1243  HIT %:    99.7452  MISS %:   0.254762   MPKI: 0.02486
LLC LOAD TRANSLATION ACCESS:     143893  HIT:      78056  MISS:      65837  HIT %:    54.2459  MISS %:    45.7541   MPKI: 1.31674
LLC TRANSLATION FROM L1D PREFETCHER ACCESS:     164933  HIT:      64866  MISS:     100067  HIT %:    39.3287  MISS %:    60.6713   MPKI: 2.00134
LLC PREFETCH  REQUESTED:          0  ISSUED:          0  USEFUL:     282626  USELESS:    3347680
LLC USEFUL LOAD PREFETCHES:     282626 PREFETCH ISSUED TO LOWER LEVEL:    3531343  ACCURACY: 8.00336
LLC TIMELY PREFETCHES:     282626 LATE PREFETCHES: 0 DROPPED PREFETCHES: 0
LLC PREFETCHES SAME FILL-ORIGIN LEVEL: 0 DIFFERENT FILL-ORIGIN LEVEL: 0
LLC AVERAGE MISS LATENCY: 210.901 cycles
LLC RQ	ACCESS:    3903090	FORWARD:          0	MERGED:          0	TO_CACHE:    3903089
LLC WQ	ACCESS:     487907	FORWARD:          6	MERGED:          0	TO_CACHE:     487907
LLC PQ	ACCESS:    7246440	FORWARD:          0	MERGED:          0	TO_CACHE:    7246435

LLC Dense regions hint to LLC: 0

RAW hits: 153664
Loads Generated: 16146695
Loads sent to L1D: 15993028
Stores Generated: 1282255
Stores sent to L1D: 1282255
Major fault: 0 Minor fault: 83728
Allocated PAGES: 83728

stream: 
stream:times selected: 20037259
stream:pref_reqs: 19369454
stream:pref_reqs_filtered_out: 5494977
stream:pref_filled: 11968703
stream:pref_useful: 122966
stream:pref_late: 16081
stream:misses: 663148
stream:misses_by_poll: 0

CS: 
CS:times selected: 5012150
CS:pref_reqs: 5013391
CS:pref_reqs_filtered_out: 1167121
CS:pref_filled: 2862914
CS:pref_useful: 1650
CS:pref_late: 31
CS:misses: 102239
CS:misses_by_poll: 3517

CPLX: 
CPLX:times selected: 19825671
CPLX:pref_reqs: 5350150
CPLX:pref_reqs_filtered_out: 4448335
CPLX:pref_filled: 748120
CPLX:pref_useful: 6508
CPLX:pref_late: 113
CPLX:misses: 3951533
CPLX:misses_by_poll: 1088

ISB: 
ISB:total access:21095864
ISB:times selected:15801120
ISB:canary counter:0
ISB:pref_reqs: 9898189
ISB:pref_reqs_filtered_out: 1011633
ISB:pref_filled: 4243888
ISB:pref_useful: 925918
ISB:pref_late: 154575
ISB:misses: 8067732
ISB:misses_by_poll: 16146
ISB:Stream end: 5928123
ISB:No Prediction: 5294744 25.0985
ISB:No translation: 1241760327
ISB:Predictions: 7721526 36.6021

NL_L1: 
NL:times selected: 54224
NL:pref_reqs: 54224
NL:pref_reqs_filtered_out: 4635
NL:pref_filled: 39212
NL:pref_useful: 168
NL:pref_late: 20
NL:misses: 40903
NL:misses_by_poll: 0

Coverage: 11.4108
total selections: 60730424
total_filled: 10273561
total_useful: 758771
total_late: 177910
total_polluted: 20751
total_misses_after_warmup: 5907438
conflicts: 77800

test: 0
ISB Prefetcher final stats
Prefetcher final stats
Training Unit Size: 97
Addr table size: 3976558 3976589
Triggers: 21095864
Structural address exists: 15801120 74.9015
No Prediction: 5294744 25.0985
Prefetches issued: 7721526 36.6021
Stream end: 5928123
No translation: 1241760327
%Stream divergence: 2194460 10.4023
Stream divergence -- new stream: 0
A: 0
B: 0
C: 20037263
D: 20037263
E: 20037263
F: 0
G: 0

DRAM Statistics
 CHANNEL 0
 RQ ROW_BUFFER_HIT:     141972  ROW_BUFFER_MISS:    5642023
 DBUS_CONGESTED:        221
 WQ ROW_BUFFER_HIT:     218024  ROW_BUFFER_MISS:     186726  FULL:          0

 AVG_CONGESTED_CYCLE: 4
 All warmup complete: 2
Channel 0 Bank busy for read cycles: 0
Channel 0 Bank busy for write cycles: 0
Channel 0
Rank 0
0banks busy for read cycles: 109381867
0banks busy for write cycles: 47578
1banks busy for read cycles: 144201146
1banks busy for write cycles: 12862877
2banks busy for read cycles: 133541665
2banks busy for write cycles: 3156556
3banks busy for read cycles: 70918707
3banks busy for write cycles: 1582207
4banks busy for read cycles: 33826242
4banks busy for write cycles: 1117650
5banks busy for read cycles: 13042101
5banks busy for write cycles: 838485
6banks busy for read cycles: 3878364
6banks busy for write cycles: 939850
7banks busy for read cycles: 756091
7banks busy for write cycles: 3445785
8banks busy for read cycles: 69289
8banks busy for write cycles: 12379129

CPU 0 Branch Prediction Accuracy: 88.5978% MPKI: 27.4129 Average ROB Occupancy at Mispredict: 19.8657
Branch types
NOT_BRANCH: 37978919 75.9578%
BRANCH_DIRECT_JUMP: 328173 0.656346%
BRANCH_INDIRECT: 0 0%
BRANCH_CONDITIONAL: 11629170 23.2583%
BRANCH_DIRECT_CALL: 31743 0.063486%
BRANCH_INDIRECT_CALL: 0 0%
BRANCH_RETURN: 31743 0.063486%
BRANCH_OTHER: 0 0%

DRAM PAGES: 1048576
Allocated PAGES: 83728
