
*** ChampSim Multicore Out-of-Order Simulator ***

Warmup Instructions: 50000000
Simulation Instructions: 50000000
Number of CPUs: 1
LLC sets: 2048
LLC ways: 16
Off-chip DRAM Size: 4096 MB Channels: 1 Width: 64-bit Data Rate: 6400 MT/s
CPU 0 runs ./traces/SPEC-CPU2017/433.milc-127B.champsimtrace.xz
.xz
CPU 0 Bimodal branch predictor
BTB has LRU replacement policy
ITLB has LRU replacement policy
DTLB has LRU replacement policy
STLB has LRU replacement policy
L1I has LRU replacement policy
L1D has LRU replacement policy
L2C has LRU replacement policy
LLC has LRU replacement policy
Heartbeat CPU 0 instructions: 10000002 cycles: 2783580 heartbeat IPC: 3.5925 cumulative IPC: 3.5925 (Simulation time: 0 hr 5 min 39 sec) 
Heartbeat CPU 0 instructions: 20000000 cycles: 5728190 heartbeat IPC: 3.39603 cumulative IPC: 3.4915 (Simulation time: 0 hr 14 min 59 sec) 
Heartbeat CPU 0 instructions: 30000000 cycles: 9088264 heartbeat IPC: 2.97613 cumulative IPC: 3.30096 (Simulation time: 0 hr 26 min 27 sec) 
Heartbeat CPU 0 instructions: 40000000 cycles: 11971977 heartbeat IPC: 3.46775 cumulative IPC: 3.34114 (Simulation time: 0 hr 35 min 34 sec) 
Heartbeat CPU 0 instructions: 50000002 cycles: 14855693 heartbeat IPC: 3.46775 cumulative IPC: 3.36571 (Simulation time: 0 hr 44 min 42 sec) 

Warmup complete CPU 0 instructions: 50000002 cycles: 14855693 (Simulation time: 0 hr 44 min 42 sec) 

Heartbeat CPU 0 instructions: 60000000 cycles: 32428193 heartbeat IPC: 0.569071 cumulative IPC: 0.569071 (Simulation time: 0 hr 46 min 50 sec) 
Heartbeat CPU 0 instructions: 70000002 cycles: 49944766 heartbeat IPC: 0.570888 cumulative IPC: 0.569978 (Simulation time: 0 hr 49 min 11 sec) 
Heartbeat CPU 0 instructions: 80000000 cycles: 67459477 heartbeat IPC: 0.570948 cumulative IPC: 0.570301 (Simulation time: 0 hr 51 min 20 sec) 
Heartbeat CPU 0 instructions: 90000003 cycles: 84976179 heartbeat IPC: 0.570884 cumulative IPC: 0.570447 (Simulation time: 0 hr 53 min 28 sec) 
Heartbeat CPU 0 instructions: 100000000 cycles: 106699741 heartbeat IPC: 0.46033 cumulative IPC: 0.544401 (Simulation time: 0 hr 55 min 42 sec) 
Finished CPU 0 instructions: 50000000 cycles: 91844056 cumulative IPC: 0.544401 (Simulation time: 0 hr 55 min 42 sec) 

ChampSim completed all CPUs

Region of Interest Statistics

CPU 0 cumulative IPC: 0.544401 instructions: 50000000 cycles: 91844056
ITLB TOTAL     ACCESS:    8938307  HIT:    8938307  MISS:          0  HIT %:        100  MISS %:          0   MPKI: 0
ITLB LOAD TRANSLATION ACCESS:    8938307  HIT:    8938307  MISS:          0  HIT %:        100  MISS %:          0   MPKI: 0
ITLB PREFETCH  REQUESTED:          0  ISSUED:          0  USEFUL:          0  USELESS:          0
ITLB USEFUL LOAD PREFETCHES:          0 PREFETCH ISSUED TO LOWER LEVEL:          0  ACCURACY: -nan
ITLB TIMELY PREFETCHES:          0 LATE PREFETCHES: 0 DROPPED PREFETCHES: 0
ITLB PREFETCHES SAME FILL-ORIGIN LEVEL: 0 DIFFERENT FILL-ORIGIN LEVEL: 0
ITLB AVERAGE MISS LATENCY: -nan cycles
ITLB RQ	ACCESS:   10536810	FORWARD:          0	MERGED:    1598504	TO_CACHE:    8938306

DTLB TOTAL     ACCESS:    9592117  HIT:    9536629  MISS:      55488  HIT %:    99.4215  MISS %:   0.578475   MPKI: 1.10976
DTLB LOAD TRANSLATION ACCESS:    9592117  HIT:    9536629  MISS:      55488  HIT %:    99.4215  MISS %:   0.578475   MPKI: 1.10976
DTLB PREFETCH  REQUESTED:          0  ISSUED:          0  USEFUL:          0  USELESS:          0
DTLB USEFUL LOAD PREFETCHES:          0 PREFETCH ISSUED TO LOWER LEVEL:          0  ACCURACY: -nan
DTLB TIMELY PREFETCHES:          0 LATE PREFETCHES: 0 DROPPED PREFETCHES: 0
DTLB PREFETCHES SAME FILL-ORIGIN LEVEL: 0 DIFFERENT FILL-ORIGIN LEVEL: 0
DTLB AVERAGE MISS LATENCY: 57.9425 cycles
DTLB RQ	ACCESS:   13920928	FORWARD:          0	MERGED:    4272021	TO_CACHE:    9648907

STLB TOTAL     ACCESS:     617959  HIT:     562471  MISS:      55488  HIT %:    91.0208  MISS %:    8.97924   MPKI: 1.10976
STLB LOAD TRANSLATION ACCESS:      55488  HIT:          0  MISS:      55488  HIT %:          0  MISS %:        100   MPKI: 1.10976
STLB TRANSLATION FROM L1D PREFETCHER ACCESS:     562471  HIT:     562471  MISS:          0  HIT %:        100  MISS %:          0   MPKI: 0
STLB PREFETCH  REQUESTED:          0  ISSUED:          0  USEFUL:          0  USELESS:          0
STLB USEFUL LOAD PREFETCHES:          0 PREFETCH ISSUED TO LOWER LEVEL:          0  ACCURACY: -nan
STLB TIMELY PREFETCHES:          0 LATE PREFETCHES: 0 DROPPED PREFETCHES: 0
STLB PREFETCHES SAME FILL-ORIGIN LEVEL: 0 DIFFERENT FILL-ORIGIN LEVEL: 0
STLB AVERAGE MISS LATENCY: 48.9408 cycles
STLB RQ	ACCESS:     877046	FORWARD:          0	MERGED:     259087	TO_CACHE:     617959

STLB Hit, L1D data hit: 0
STLB Hit, L2C data hit: 0
STLB Hit, LLC data hit: 0
STLB Hit, LLC data miss: 0
STLB STLB hints to L2: 0
L1D TOTAL     ACCESS:   14475324  HIT:   13693141  MISS:     782183  HIT %:    94.5964  MISS %:    5.40356   MPKI: 15.6437
L1D LOAD      ACCESS:    6021735  HIT:    5675468  MISS:     346267  HIT %:    94.2497  MISS %:    5.75029   MPKI: 6.92534
L1D RFO       ACCESS:    7815050  HIT:    7815050  MISS:          0  HIT %:        100  MISS %:          0   MPKI: 0
L1D PREFETCH  ACCESS:     638539  HIT:     202623  MISS:     435916  HIT %:    31.7323  MISS %:    68.2677   MPKI: 8.71832
AGUS PREFETCH L1 MISS: 0
L1D PREFETCH  REQUESTED:    1643117  ISSUED:    1643117  USEFUL:     307585  USELESS:     128433
L1D USEFUL LOAD PREFETCHES:     307585 PREFETCH ISSUED TO LOWER LEVEL:     504199  ACCURACY: 61.0047
L1D TIMELY PREFETCHES:     307585 LATE PREFETCHES: 68280 DROPPED PREFETCHES: 0
L1D PREFETCHES SAME FILL-ORIGIN LEVEL: 504199 DIFFERENT FILL-ORIGIN LEVEL: 0
L1D AVERAGE MISS LATENCY: 198.736 cycles
L1D RQ	ACCESS:   17366889	FORWARD:          0	MERGED:   11109790	TO_CACHE:    6105883
L1D WQ	ACCESS:    7826908	FORWARD:     151217	MERGED:      11863	TO_CACHE:    7815045
L1D PQ	ACCESS:     821559	FORWARD:          0	MERGED:          0	TO_CACHE:     821558

L1D UNIQUE REGIONS ACCESSED: 0
L1D REGIONS CONFLICTS: 0
L1D Cross Page Prefetch Requests: 0
L1D Same Page Prefetch Requests: 2076761
L1D ROI Sum of L1D PQ occupancy: 10625009
L1D PREFETCHES PUSHED FROM L2C: 0
L1I TOTAL     ACCESS:   10536810  HIT:   10536807  MISS:          3  HIT %:        100  MISS %: 2.84716e-05   MPKI: 6e-05
L1I LOAD      ACCESS:   10536810  HIT:   10536807  MISS:          3  HIT %:        100  MISS %: 2.84716e-05   MPKI: 6e-05
L1I PREFETCH  REQUESTED:          0  ISSUED:          0  USEFUL:          0  USELESS:          0
L1I USEFUL LOAD PREFETCHES:          0 PREFETCH ISSUED TO LOWER LEVEL:          0  ACCURACY: -nan
L1I TIMELY PREFETCHES:          0 LATE PREFETCHES: 0 DROPPED PREFETCHES: 0
L1I PREFETCHES SAME FILL-ORIGIN LEVEL: 0 DIFFERENT FILL-ORIGIN LEVEL: 0
L1I AVERAGE MISS LATENCY: 213 cycles
L1I RQ	ACCESS:   15086703	FORWARD:          0	MERGED:    4549893	TO_CACHE:   10536810

BTB TOTAL     ACCESS:    4193983  HIT:    4193963  MISS:         20  HIT %:    99.9995  MISS %: 0.000476874   MPKI: 0.0004
BTB BRANCH_DIRECT_JUMP	ACCESS:      80000  HIT:      79999  MISS:          1
BTB BRANCH_INDIRECT	ACCESS:          0  HIT:          0  MISS:          0
BTB BRANCH_CONDITIONAL	ACCESS:    3042372  HIT:    3042364  MISS:          8
BTB BRANCH_DIRECT_CALL	ACCESS:     535805  HIT:     535800  MISS:          5
BTB BRANCH_INDIRECT_CALL	ACCESS:          0  HIT:          0  MISS:          0
BTB BRANCH_RETURN	ACCESS:     535806  HIT:     535800  MISS:          6
BTB BRANCH_OTHER ACCESS:          0  HIT:          0  MISS:          0

L2C TOTAL     ACCESS:    1139405  HIT:     351654  MISS:     787751  HIT %:     30.863  MISS %:     69.137   MPKI: 15.755
L2C LOAD      ACCESS:     277990  HIT:          1  MISS:     277989  HIT %: 0.000359725  MISS %:    99.9996   MPKI: 5.55978
L2C DATA LOAD MPKI: 5.55972
L2C INSTRUCTION LOAD MPKI: 6e-05
L2C PREFETCH  ACCESS:     504196  HIT:       1429  MISS:     502767  HIT %:   0.283422  MISS %:    99.7166   MPKI: 10.0553
AGUS PREFETCH L1 MISS: 0
L2C DATA PREFETCH MPKI: 10.0553
L2C INSTRUCTION PREFETCH MPKI: 0
L2C WRITEBACK ACCESS:     301623  HIT:     301616  MISS:          7  HIT %:    99.9977  MISS %: 0.00232078   MPKI: 0.00014
L2C LOAD TRANSLATION ACCESS:      55596  HIT:      48608  MISS:       6988  HIT %:    87.4308  MISS %:    12.5692   MPKI: 0.13976
L2C PREFETCH  REQUESTED:          0  ISSUED:          0  USEFUL:          1  USELESS:     502092
L2C USEFUL LOAD PREFETCHES:          1 PREFETCH ISSUED TO LOWER LEVEL:     502770  ACCURACY: 0.000198898
L2C TIMELY PREFETCHES:          1 LATE PREFETCHES: 0 DROPPED PREFETCHES: 0
L2C PREFETCHES SAME FILL-ORIGIN LEVEL: 0 DIFFERENT FILL-ORIGIN LEVEL: 0
L2C AVERAGE MISS LATENCY: 183.941 cycles
L2C RQ	ACCESS:     333586	FORWARD:          0	MERGED:          0	TO_CACHE:     333586
L2C WQ	ACCESS:     301623	FORWARD:          0	MERGED:          0	TO_CACHE:     301623
L2C PQ	ACCESS:     504199	FORWARD:          0	MERGED:          0	TO_CACHE:     504199

L2C Instructions Evicting Data 3
L2C Translations Evicting Data 6817
L2C Data Evicting Data 773700
L2C Instructions Evicting Instructions 0
L2C Translations Evicting Instructions 0
L2C Data Evicting Instructions 3
L2C Instructions Evicting Translations 0
L2C Translations Evicting Translations 171
L2C Data Evicting Translations 7050
L2C Dense regions hint from L2: 0
PSCL5 TOTAL     ACCESS:      55488  HIT:      55488  MISS:          0  HIT %:        100  MISS %:          0   MPKI: 0
PSCL5 LOAD TRANSLATION ACCESS:      55488  HIT:      55488  MISS:          0  HIT %:        100  MISS %:          0   MPKI: 0
PSCL5 PREFETCH  REQUESTED:          0  ISSUED:          0  USEFUL:          0  USELESS:          0
PSCL5 USEFUL LOAD PREFETCHES:          0 PREFETCH ISSUED TO LOWER LEVEL:          0  ACCURACY: -nan
PSCL5 TIMELY PREFETCHES:          0 LATE PREFETCHES: 0 DROPPED PREFETCHES: 0
PSCL5 PREFETCHES SAME FILL-ORIGIN LEVEL: 0 DIFFERENT FILL-ORIGIN LEVEL: 0

PSCL4 TOTAL     ACCESS:      55488  HIT:      55488  MISS:          0  HIT %:        100  MISS %:          0   MPKI: 0
PSCL4 LOAD TRANSLATION ACCESS:      55488  HIT:      55488  MISS:          0  HIT %:        100  MISS %:          0   MPKI: 0
PSCL4 PREFETCH  REQUESTED:          0  ISSUED:          0  USEFUL:          0  USELESS:          0
PSCL4 USEFUL LOAD PREFETCHES:          0 PREFETCH ISSUED TO LOWER LEVEL:          0  ACCURACY: -nan
PSCL4 TIMELY PREFETCHES:          0 LATE PREFETCHES: 0 DROPPED PREFETCHES: 0
PSCL4 PREFETCHES SAME FILL-ORIGIN LEVEL: 0 DIFFERENT FILL-ORIGIN LEVEL: 0

PSCL3 TOTAL     ACCESS:      55488  HIT:      55488  MISS:          0  HIT %:        100  MISS %:          0   MPKI: 0
PSCL3 LOAD TRANSLATION ACCESS:      55488  HIT:      55488  MISS:          0  HIT %:        100  MISS %:          0   MPKI: 0
PSCL3 PREFETCH  REQUESTED:          0  ISSUED:          0  USEFUL:          0  USELESS:          0
PSCL3 USEFUL LOAD PREFETCHES:          0 PREFETCH ISSUED TO LOWER LEVEL:          0  ACCURACY: -nan
PSCL3 TIMELY PREFETCHES:          0 LATE PREFETCHES: 0 DROPPED PREFETCHES: 0
PSCL3 PREFETCHES SAME FILL-ORIGIN LEVEL: 0 DIFFERENT FILL-ORIGIN LEVEL: 0

PSCL2 TOTAL     ACCESS:      55488  HIT:      55375  MISS:        113  HIT %:    99.7964  MISS %:   0.203648   MPKI: 0.00226
PSCL2 LOAD TRANSLATION ACCESS:      55488  HIT:      55375  MISS:        113  HIT %:    99.7964  MISS %:   0.203648   MPKI: 0.00226
PSCL2 PREFETCH  REQUESTED:          0  ISSUED:          0  USEFUL:          0  USELESS:          0
PSCL2 USEFUL LOAD PREFETCHES:          0 PREFETCH ISSUED TO LOWER LEVEL:          0  ACCURACY: -nan
PSCL2 TIMELY PREFETCHES:          0 LATE PREFETCHES: 0 DROPPED PREFETCHES: 0
PSCL2 PREFETCHES SAME FILL-ORIGIN LEVEL: 0 DIFFERENT FILL-ORIGIN LEVEL: 0

LLC TOTAL     ACCESS:    1086104  HIT:     298413  MISS:     787691  HIT %:    27.4755  MISS %:    72.5245   MPKI: 15.7538
LLC LOAD      ACCESS:     277989  HIT:          0  MISS:     277989  HIT %:          0  MISS %:        100   MPKI: 5.55978
LLC PREFETCH  ACCESS:     502767  HIT:         45  MISS:     502722  HIT %: 0.00895047  MISS %:     99.991   MPKI: 10.0544
AGUS PREFETCH L1 MISS: 0
LLC WRITEBACK ACCESS:     298360  HIT:     298353  MISS:          7  HIT %:    99.9977  MISS %: 0.00234616   MPKI: 0.00014
LLC LOAD TRANSLATION ACCESS:       6988  HIT:         15  MISS:       6973  HIT %:   0.214654  MISS %:    99.7853   MPKI: 0.13946
LLC PREFETCH  REQUESTED:          0  ISSUED:          0  USEFUL:          0  USELESS:     499942
LLC USEFUL LOAD PREFETCHES:          0 PREFETCH ISSUED TO LOWER LEVEL:     502725  ACCURACY: 0
LLC TIMELY PREFETCHES:          0 LATE PREFETCHES: 0 DROPPED PREFETCHES: 0
LLC PREFETCHES SAME FILL-ORIGIN LEVEL: 0 DIFFERENT FILL-ORIGIN LEVEL: 0
LLC AVERAGE MISS LATENCY: 153.876 cycles
LLC RQ	ACCESS:     284977	FORWARD:          0	MERGED:          0	TO_CACHE:     284977
LLC WQ	ACCESS:     298360	FORWARD:          0	MERGED:          0	TO_CACHE:     298360
LLC PQ	ACCESS:     502770	FORWARD:          0	MERGED:          0	TO_CACHE:     502770

LLC Dense regions hint to LLC: 0

RAW hits: 14157
Loads Generated: 17381038
Loads sent to L1D: 17366889
Stores Generated: 7826902
Stores sent to L1D: 7826908
Major fault: 0 Minor fault: 89779
Allocated PAGES: 89779

stream: 
stream:times selected: 3965444
stream:pref_filled: 408006
stream:pref_useful: 58687
stream:pref_late: 129979
stream:misses: 356872
stream:misses_by_poll: 0

CS: 
CS:times selected: 1411265
CS:pref_filled: 521249
CS:pref_useful: 521213
CS:pref_late: 5520
CS:misses: 33855
CS:misses_by_poll: 1022

CPLX: 
CPLX:times selected: 2182724
CPLX:pref_filled: 174401
CPLX:pref_useful: 119874
CPLX:pref_late: 8501
CPLX:misses: 464301
CPLX:misses_by_poll: 740

NL_L1: 
NL:times selected: 9685
NL:pref_filled: 7483
NL:pref_useful: 296
NL:pref_late: 26
NL:misses: 7327
NL:misses_by_poll: 2

total selections: 7569118
total_filled: 435916
total_useful: 307585
total_late: 145278
total_polluted: 1764
total_misses_after_warmup: 430416
conflicts: 594879

test: 1059037

DRAM Statistics
 CHANNEL 0
 RQ ROW_BUFFER_HIT:     219799  ROW_BUFFER_MISS:     567887
 DBUS_CONGESTED:        138
 WQ ROW_BUFFER_HIT:     100972  ROW_BUFFER_MISS:     186934  FULL:          0

 AVG_CONGESTED_CYCLE: 4
 All warmup complete: 2
Channel 0 Bank busy for read cycles: 0
Channel 0 Bank busy for write cycles: 0
Channel 0
Rank 0
0banks busy for read cycles: 23431095
0banks busy for write cycles: 102670
1banks busy for read cycles: 17961898
1banks busy for write cycles: 5217212
2banks busy for read cycles: 14025475
2banks busy for write cycles: 14733314
3banks busy for read cycles: 7858269
3banks busy for write cycles: 63661
4banks busy for read cycles: 5533464
4banks busy for write cycles: 69883
5banks busy for read cycles: 779478
5banks busy for write cycles: 81484
6banks busy for read cycles: 102694
6banks busy for write cycles: 115884
7banks busy for read cycles: 8040
7banks busy for write cycles: 213012
8banks busy for read cycles: 922
8banks busy for write cycles: 1545602

CPU 0 Branch Prediction Accuracy: 78.2145% MPKI: 18.7089 Average ROB Occupancy at Mispredict: 40.3303
Branch types
NOT_BRANCH: 45705861 91.4117%
BRANCH_DIRECT_JUMP: 80000 0.16%
BRANCH_INDIRECT: 0 0%
BRANCH_CONDITIONAL: 3142280 6.28456%
BRANCH_DIRECT_CALL: 535805 1.07161%
BRANCH_INDIRECT_CALL: 0 0%
BRANCH_RETURN: 535806 1.07161%
BRANCH_OTHER: 0 0%

DRAM PAGES: 1048576
Allocated PAGES: 89779
