
*** ChampSim Multicore Out-of-Order Simulator ***

Warmup Instructions: 50000000
Simulation Instructions: 50000000
Number of CPUs: 1
LLC sets: 2048
LLC ways: 16
Off-chip DRAM Size: 4096 MB Channels: 1 Width: 64-bit Data Rate: 6400 MT/s
CPU 0 runs ./traces/SPEC-CPU2017/433.milc-127B.champsimtrace.xz
.xz
CPU 0 Bimodal branch predictor
BTB has LRU replacement policy
ITLB has LRU replacement policy
DTLB has LRU replacement policy
STLB has LRU replacement policy
L1I has LRU replacement policy
L1D has LRU replacement policy
L2C has LRU replacement policy
LLC has LRU replacement policy
Heartbeat CPU 0 instructions: 10000002 cycles: 2799459 heartbeat IPC: 3.57212 cumulative IPC: 3.57212 (Simulation time: 0 hr 0 min 52 sec) 
Heartbeat CPU 0 instructions: 20000000 cycles: 5760275 heartbeat IPC: 3.37745 cumulative IPC: 3.47206 (Simulation time: 0 hr 1 min 53 sec) 
Heartbeat CPU 0 instructions: 30000000 cycles: 9142071 heartbeat IPC: 2.95701 cumulative IPC: 3.28153 (Simulation time: 0 hr 3 min 2 sec) 
Heartbeat CPU 0 instructions: 40000000 cycles: 12046232 heartbeat IPC: 3.44334 cumulative IPC: 3.32054 (Simulation time: 0 hr 4 min 6 sec) 
Heartbeat CPU 0 instructions: 50000002 cycles: 14950410 heartbeat IPC: 3.44332 cumulative IPC: 3.34439 (Simulation time: 0 hr 5 min 9 sec) 

Warmup complete CPU 0 instructions: 50000002 cycles: 14950410 (Simulation time: 0 hr 5 min 9 sec) 

Heartbeat CPU 0 instructions: 60000000 cycles: 36345356 heartbeat IPC: 0.4674 cumulative IPC: 0.4674 (Simulation time: 0 hr 6 min 43 sec) 
Heartbeat CPU 0 instructions: 70000001 cycles: 57631865 heartbeat IPC: 0.469781 cumulative IPC: 0.468588 (Simulation time: 0 hr 8 min 16 sec) 
Heartbeat CPU 0 instructions: 80000000 cycles: 78913524 heartbeat IPC: 0.469888 cumulative IPC: 0.46902 (Simulation time: 0 hr 9 min 48 sec) 
Heartbeat CPU 0 instructions: 90000003 cycles: 100193211 heartbeat IPC: 0.469932 cumulative IPC: 0.469248 (Simulation time: 0 hr 11 min 4 sec) 
Heartbeat CPU 0 instructions: 100000000 cycles: 143930132 heartbeat IPC: 0.22864 cumulative IPC: 0.387658 (Simulation time: 0 hr 12 min 7 sec) 
Finished CPU 0 instructions: 50000000 cycles: 128979730 cumulative IPC: 0.387658 (Simulation time: 0 hr 12 min 7 sec) 

ChampSim completed all CPUs

Region of Interest Statistics

CPU 0 cumulative IPC: 0.387658 instructions: 50000000 cycles: 128979730
ITLB TOTAL     ACCESS:    8938307  HIT:    8938307  MISS:          0  HIT %:        100  MISS %:          0   MPKI: 0
ITLB LOAD TRANSLATION ACCESS:    8938307  HIT:    8938307  MISS:          0  HIT %:        100  MISS %:          0   MPKI: 0
ITLB PREFETCH  REQUESTED:          0  ISSUED:          0  USEFUL:          0  USELESS:          0
ITLB USEFUL LOAD PREFETCHES:          0 PREFETCH ISSUED TO LOWER LEVEL:          0  ACCURACY: -nan
ITLB TIMELY PREFETCHES:          0 LATE PREFETCHES: 0 DROPPED PREFETCHES: 0
ITLB PREFETCHES SAME FILL-ORIGIN LEVEL: 0 DIFFERENT FILL-ORIGIN LEVEL: 0
ITLB AVERAGE MISS LATENCY: -nan cycles
ITLB RQ	ACCESS:   10536810	FORWARD:          0	MERGED:    1598504	TO_CACHE:    8938306

DTLB TOTAL     ACCESS:    9457229  HIT:    9401741  MISS:      55488  HIT %:    99.4133  MISS %:   0.586726   MPKI: 1.10976
DTLB LOAD TRANSLATION ACCESS:    9457229  HIT:    9401741  MISS:      55488  HIT %:    99.4133  MISS %:   0.586726   MPKI: 1.10976
DTLB PREFETCH  REQUESTED:          0  ISSUED:          0  USEFUL:          0  USELESS:          0
DTLB USEFUL LOAD PREFETCHES:          0 PREFETCH ISSUED TO LOWER LEVEL:          0  ACCURACY: -nan
DTLB TIMELY PREFETCHES:          0 LATE PREFETCHES: 0 DROPPED PREFETCHES: 0
DTLB PREFETCHES SAME FILL-ORIGIN LEVEL: 0 DIFFERENT FILL-ORIGIN LEVEL: 0
DTLB AVERAGE MISS LATENCY: 57.5761 cycles
DTLB RQ	ACCESS:   13729806	FORWARD:          0	MERGED:    4215808	TO_CACHE:    9513998

STLB TOTAL     ACCESS:      55488  HIT:          0  MISS:      55488  HIT %:          0  MISS %:        100   MPKI: 1.10976
STLB LOAD TRANSLATION ACCESS:      55488  HIT:          0  MISS:      55488  HIT %:          0  MISS %:        100   MPKI: 1.10976
STLB PREFETCH  REQUESTED:          0  ISSUED:          0  USEFUL:          0  USELESS:          0
STLB USEFUL LOAD PREFETCHES:          0 PREFETCH ISSUED TO LOWER LEVEL:          0  ACCURACY: -nan
STLB TIMELY PREFETCHES:          0 LATE PREFETCHES: 0 DROPPED PREFETCHES: 0
STLB PREFETCHES SAME FILL-ORIGIN LEVEL: 0 DIFFERENT FILL-ORIGIN LEVEL: 0
STLB AVERAGE MISS LATENCY: 48.5761 cycles
STLB RQ	ACCESS:      55488	FORWARD:          0	MERGED:          0	TO_CACHE:      55488

STLB Hit, L1D data hit: 0
STLB Hit, L2C data hit: 0
STLB Hit, LLC data hit: 0
STLB Hit, LLC data miss: 0
STLB STLB hints to L2: 0
L1D TOTAL     ACCESS:   13326721  HIT:   12672869  MISS:     653852  HIT %:    95.0937  MISS %:    4.90632   MPKI: 13.077
L1D LOAD      ACCESS:    5499808  HIT:    4845956  MISS:     653852  HIT %:    88.1114  MISS %:    11.8886   MPKI: 13.077
L1D RFO       ACCESS:    7826913  HIT:    7826913  MISS:          0  HIT %:        100  MISS %:          0   MPKI: 0
L1D PREFETCH  REQUESTED:          0  ISSUED:          0  USEFUL:          0  USELESS:          0
L1D USEFUL LOAD PREFETCHES:          0 PREFETCH ISSUED TO LOWER LEVEL:          0  ACCURACY: -nan
L1D TIMELY PREFETCHES:          0 LATE PREFETCHES: 0 DROPPED PREFETCHES: 0
L1D PREFETCHES SAME FILL-ORIGIN LEVEL: 0 DIFFERENT FILL-ORIGIN LEVEL: 0
L1D AVERAGE MISS LATENCY: 198.881 cycles
L1D RQ	ACCESS:   17378859	FORWARD:          0	MERGED:   11312775	TO_CACHE:    5902898
L1D WQ	ACCESS:    7826908	FORWARD:     163186	MERGED:          0	TO_CACHE:    7826908

L1D UNIQUE REGIONS ACCESSED: 0
L1D REGIONS CONFLICTS: 0
L1D Cross Page Prefetch Requests: 0
L1D Same Page Prefetch Requests: 0
L1D ROI Sum of L1D PQ occupancy: 0
L1D PREFETCHES PUSHED FROM L2C: 0
L1I TOTAL     ACCESS:   10536810  HIT:   10536807  MISS:          3  HIT %:        100  MISS %: 2.84716e-05   MPKI: 6e-05
L1I LOAD      ACCESS:   10536810  HIT:   10536807  MISS:          3  HIT %:        100  MISS %: 2.84716e-05   MPKI: 6e-05
L1I PREFETCH  REQUESTED:          0  ISSUED:          0  USEFUL:          0  USELESS:          0
L1I USEFUL LOAD PREFETCHES:          0 PREFETCH ISSUED TO LOWER LEVEL:          0  ACCURACY: -nan
L1I TIMELY PREFETCHES:          0 LATE PREFETCHES: 0 DROPPED PREFETCHES: 0
L1I PREFETCHES SAME FILL-ORIGIN LEVEL: 0 DIFFERENT FILL-ORIGIN LEVEL: 0
L1I AVERAGE MISS LATENCY: 213 cycles
L1I RQ	ACCESS:   15086732	FORWARD:          0	MERGED:    4549922	TO_CACHE:   10536810

BTB TOTAL     ACCESS:    4193983  HIT:    4193963  MISS:         20  HIT %:    99.9995  MISS %: 0.000476874   MPKI: 0.0004
BTB BRANCH_DIRECT_JUMP	ACCESS:      80000  HIT:      79999  MISS:          1
BTB BRANCH_INDIRECT	ACCESS:          0  HIT:          0  MISS:          0
BTB BRANCH_CONDITIONAL	ACCESS:    3042372  HIT:    3042364  MISS:          8
BTB BRANCH_DIRECT_CALL	ACCESS:     535805  HIT:     535800  MISS:          5
BTB BRANCH_INDIRECT_CALL	ACCESS:          0  HIT:          0  MISS:          0
BTB BRANCH_RETURN	ACCESS:     535806  HIT:     535800  MISS:          6
BTB BRANCH_OTHER ACCESS:          0  HIT:          0  MISS:          0

L2C TOTAL     ACCESS:    1011071  HIT:     350232  MISS:     660839  HIT %:    34.6397  MISS %:    65.3603   MPKI: 13.2168
L2C LOAD      ACCESS:     653855  HIT:          0  MISS:     653855  HIT %:          0  MISS %:        100   MPKI: 13.0771
L2C DATA LOAD MPKI: 13.077
L2C INSTRUCTION LOAD MPKI: 6e-05
L2C WRITEBACK ACCESS:     301620  HIT:     301614  MISS:          6  HIT %:     99.998  MISS %: 0.00198926   MPKI: 0.00012
L2C LOAD TRANSLATION ACCESS:      55596  HIT:      48618  MISS:       6978  HIT %:    87.4487  MISS %:    12.5513   MPKI: 0.13956
L2C PREFETCH  REQUESTED:          0  ISSUED:          0  USEFUL:          0  USELESS:          0
L2C USEFUL LOAD PREFETCHES:          0 PREFETCH ISSUED TO LOWER LEVEL:          0  ACCURACY: -nan
L2C TIMELY PREFETCHES:          0 LATE PREFETCHES: 0 DROPPED PREFETCHES: 0
L2C PREFETCHES SAME FILL-ORIGIN LEVEL: 0 DIFFERENT FILL-ORIGIN LEVEL: 0
L2C AVERAGE MISS LATENCY: 183.89 cycles
L2C RQ	ACCESS:     709451	FORWARD:          0	MERGED:          0	TO_CACHE:     709451
L2C WQ	ACCESS:     301620	FORWARD:          0	MERGED:          0	TO_CACHE:     301620

L2C Instructions Evicting Data 3
L2C Translations Evicting Data 6804
L2C Data Evicting Data 646770
L2C Instructions Evicting Instructions 0
L2C Translations Evicting Instructions 0
L2C Data Evicting Instructions 3
L2C Instructions Evicting Translations 0
L2C Translations Evicting Translations 174
L2C Data Evicting Translations 7079
L2C Dense regions hint from L2: 0
PSCL5 TOTAL     ACCESS:      55488  HIT:      55488  MISS:          0  HIT %:        100  MISS %:          0   MPKI: 0
PSCL5 LOAD TRANSLATION ACCESS:      55488  HIT:      55488  MISS:          0  HIT %:        100  MISS %:          0   MPKI: 0
PSCL5 PREFETCH  REQUESTED:          0  ISSUED:          0  USEFUL:          0  USELESS:          0
PSCL5 USEFUL LOAD PREFETCHES:          0 PREFETCH ISSUED TO LOWER LEVEL:          0  ACCURACY: -nan
PSCL5 TIMELY PREFETCHES:          0 LATE PREFETCHES: 0 DROPPED PREFETCHES: 0
PSCL5 PREFETCHES SAME FILL-ORIGIN LEVEL: 0 DIFFERENT FILL-ORIGIN LEVEL: 0

PSCL4 TOTAL     ACCESS:      55488  HIT:      55488  MISS:          0  HIT %:        100  MISS %:          0   MPKI: 0
PSCL4 LOAD TRANSLATION ACCESS:      55488  HIT:      55488  MISS:          0  HIT %:        100  MISS %:          0   MPKI: 0
PSCL4 PREFETCH  REQUESTED:          0  ISSUED:          0  USEFUL:          0  USELESS:          0
PSCL4 USEFUL LOAD PREFETCHES:          0 PREFETCH ISSUED TO LOWER LEVEL:          0  ACCURACY: -nan
PSCL4 TIMELY PREFETCHES:          0 LATE PREFETCHES: 0 DROPPED PREFETCHES: 0
PSCL4 PREFETCHES SAME FILL-ORIGIN LEVEL: 0 DIFFERENT FILL-ORIGIN LEVEL: 0

PSCL3 TOTAL     ACCESS:      55488  HIT:      55488  MISS:          0  HIT %:        100  MISS %:          0   MPKI: 0
PSCL3 LOAD TRANSLATION ACCESS:      55488  HIT:      55488  MISS:          0  HIT %:        100  MISS %:          0   MPKI: 0
PSCL3 PREFETCH  REQUESTED:          0  ISSUED:          0  USEFUL:          0  USELESS:          0
PSCL3 USEFUL LOAD PREFETCHES:          0 PREFETCH ISSUED TO LOWER LEVEL:          0  ACCURACY: -nan
PSCL3 TIMELY PREFETCHES:          0 LATE PREFETCHES: 0 DROPPED PREFETCHES: 0
PSCL3 PREFETCHES SAME FILL-ORIGIN LEVEL: 0 DIFFERENT FILL-ORIGIN LEVEL: 0

PSCL2 TOTAL     ACCESS:      55488  HIT:      55375  MISS:        113  HIT %:    99.7964  MISS %:   0.203648   MPKI: 0.00226
PSCL2 LOAD TRANSLATION ACCESS:      55488  HIT:      55375  MISS:        113  HIT %:    99.7964  MISS %:   0.203648   MPKI: 0.00226
PSCL2 PREFETCH  REQUESTED:          0  ISSUED:          0  USEFUL:          0  USELESS:          0
PSCL2 USEFUL LOAD PREFETCHES:          0 PREFETCH ISSUED TO LOWER LEVEL:          0  ACCURACY: -nan
PSCL2 TIMELY PREFETCHES:          0 LATE PREFETCHES: 0 DROPPED PREFETCHES: 0
PSCL2 PREFETCHES SAME FILL-ORIGIN LEVEL: 0 DIFFERENT FILL-ORIGIN LEVEL: 0

LLC TOTAL     ACCESS:     959190  HIT:     298356  MISS:     660834  HIT %:     31.105  MISS %:     68.895   MPKI: 13.2167
LLC LOAD      ACCESS:     653855  HIT:          0  MISS:     653855  HIT %:          0  MISS %:        100   MPKI: 13.0771
LLC WRITEBACK ACCESS:     298357  HIT:     298351  MISS:          6  HIT %:     99.998  MISS %: 0.00201101   MPKI: 0.00012
LLC LOAD TRANSLATION ACCESS:       6978  HIT:          5  MISS:       6973  HIT %:  0.0716538  MISS %:    99.9283   MPKI: 0.13946
LLC PREFETCH  REQUESTED:          0  ISSUED:          0  USEFUL:          0  USELESS:          0
LLC USEFUL LOAD PREFETCHES:          0 PREFETCH ISSUED TO LOWER LEVEL:          0  ACCURACY: -nan
LLC TIMELY PREFETCHES:          0 LATE PREFETCHES: 0 DROPPED PREFETCHES: 0
LLC PREFETCHES SAME FILL-ORIGIN LEVEL: 0 DIFFERENT FILL-ORIGIN LEVEL: 0
LLC AVERAGE MISS LATENCY: 153.773 cycles
LLC RQ	ACCESS:     660833	FORWARD:          0	MERGED:          0	TO_CACHE:     660833
LLC WQ	ACCESS:     298357	FORWARD:          0	MERGED:          0	TO_CACHE:     298357

LLC Dense regions hint to LLC: 0

RAW hits: 2187
Loads Generated: 17381038
Loads sent to L1D: 17378859
Stores Generated: 7826902
Stores sent to L1D: 7826908
Major fault: 0 Minor fault: 89779
Allocated PAGES: 89779

DRAM Statistics
 CHANNEL 0
 RQ ROW_BUFFER_HIT:     109198  ROW_BUFFER_MISS:     551630
 DBUS_CONGESTED:          2
 WQ ROW_BUFFER_HIT:     103227  ROW_BUFFER_MISS:     184679  FULL:          0

 AVG_CONGESTED_CYCLE: 7
 All warmup complete: 2
Channel 0 Bank busy for read cycles: 0
Channel 0 Bank busy for write cycles: 0
Channel 0
Rank 0
0banks busy for read cycles: 41019956
0banks busy for write cycles: 103946
1banks busy for read cycles: 36389008
1banks busy for write cycles: 3787004
2banks busy for read cycles: 16893330
2banks busy for write cycles: 19222121
3banks busy for read cycles: 6009582
3banks busy for write cycles: 2275071
4banks busy for read cycles: 0
4banks busy for write cycles: 1620214
5banks busy for read cycles: 0
5banks busy for write cycles: 649724
6banks busy for read cycles: 0
6banks busy for write cycles: 644853
7banks busy for read cycles: 0
7banks busy for write cycles: 318393
8banks busy for read cycles: 0
8banks busy for write cycles: 46529

CPU 0 Branch Prediction Accuracy: 78.2145% MPKI: 18.7089 Average ROB Occupancy at Mispredict: 53.2079
Branch types
NOT_BRANCH: 45705861 91.4117%
BRANCH_DIRECT_JUMP: 80000 0.16%
BRANCH_INDIRECT: 0 0%
BRANCH_CONDITIONAL: 3142280 6.28456%
BRANCH_DIRECT_CALL: 535805 1.07161%
BRANCH_INDIRECT_CALL: 0 0%
BRANCH_RETURN: 535806 1.07161%
BRANCH_OTHER: 0 0%

DRAM PAGES: 1048576
Allocated PAGES: 89779
