
*** ChampSim Multicore Out-of-Order Simulator ***

Warmup Instructions: 50000000
Simulation Instructions: 50000000
Number of CPUs: 1
LLC sets: 2048
LLC ways: 16
Off-chip DRAM Size: 4096 MB Channels: 1 Width: 64-bit Data Rate: 6400 MT/s
CPU 0 runs ./traces/SPEC-CPU2017/433.milc-127B.champsimtrace.xz
.xz
CPU 0 Bimodal branch predictor
BTB has LRU replacement policy
ITLB has LRU replacement policy
DTLB has LRU replacement policy
STLB has LRU replacement policy
L1I has LRU replacement policy
L1D has LRU replacement policy
L2C has LRU replacement policy
LLC has LRU replacement policy
Heartbeat CPU 0 instructions: 10000002 cycles: 2767245 heartbeat IPC: 3.6137 cumulative IPC: 3.6137 (Simulation time: 0 hr 6 min 24 sec) 
Heartbeat CPU 0 instructions: 20000000 cycles: 5697122 heartbeat IPC: 3.41311 cumulative IPC: 3.51054 (Simulation time: 0 hr 13 min 55 sec) 
Heartbeat CPU 0 instructions: 30000000 cycles: 9057998 heartbeat IPC: 2.97541 cumulative IPC: 3.31199 (Simulation time: 0 hr 21 min 6 sec) 
Heartbeat CPU 0 instructions: 40000000 cycles: 11942994 heartbeat IPC: 3.46621 cumulative IPC: 3.34924 (Simulation time: 0 hr 24 min 58 sec) 
Heartbeat CPU 0 instructions: 50000002 cycles: 14828007 heartbeat IPC: 3.46619 cumulative IPC: 3.372 (Simulation time: 0 hr 30 min 8 sec) 

Warmup complete CPU 0 instructions: 50000002 cycles: 14828007 (Simulation time: 0 hr 30 min 8 sec) 

Heartbeat CPU 0 instructions: 60000000 cycles: 32214745 heartbeat IPC: 0.575151 cumulative IPC: 0.575151 (Simulation time: 0 hr 31 min 35 sec) 
Heartbeat CPU 0 instructions: 70000002 cycles: 49585717 heartbeat IPC: 0.575673 cumulative IPC: 0.575412 (Simulation time: 0 hr 32 min 52 sec) 
Heartbeat CPU 0 instructions: 80000000 cycles: 66950479 heartbeat IPC: 0.575879 cumulative IPC: 0.575567 (Simulation time: 0 hr 33 min 45 sec) 
Heartbeat CPU 0 instructions: 90000001 cycles: 84319479 heartbeat IPC: 0.575738 cumulative IPC: 0.57561 (Simulation time: 0 hr 34 min 39 sec) 
Heartbeat CPU 0 instructions: 100000000 cycles: 102778259 heartbeat IPC: 0.541748 cumulative IPC: 0.568503 (Simulation time: 0 hr 35 min 59 sec) 
Finished CPU 0 instructions: 50000000 cycles: 87950260 cumulative IPC: 0.568503 (Simulation time: 0 hr 35 min 59 sec) 

ChampSim completed all CPUs

Region of Interest Statistics

CPU 0 cumulative IPC: 0.568503 instructions: 50000000 cycles: 87950260
ITLB TOTAL     ACCESS:    8938307  HIT:    8938307  MISS:          0  HIT %:        100  MISS %:          0   MPKI: 0
ITLB LOAD TRANSLATION ACCESS:    8938307  HIT:    8938307  MISS:          0  HIT %:        100  MISS %:          0   MPKI: 0
ITLB PREFETCH  REQUESTED:          0  ISSUED:          0  USEFUL:          0  USELESS:          0
ITLB USEFUL LOAD PREFETCHES:          0 PREFETCH ISSUED TO LOWER LEVEL:          0  ACCURACY: -nan
ITLB TIMELY PREFETCHES:          0 LATE PREFETCHES: 0 DROPPED PREFETCHES: 0
ITLB PREFETCHES SAME FILL-ORIGIN LEVEL: 0 DIFFERENT FILL-ORIGIN LEVEL: 0
ITLB AVERAGE MISS LATENCY: -nan cycles
ITLB RQ	ACCESS:   10536810	FORWARD:          0	MERGED:    1598504	TO_CACHE:    8938306

DTLB TOTAL     ACCESS:    9530966  HIT:    9475478  MISS:      55488  HIT %:    99.4178  MISS %:   0.582187   MPKI: 1.10976
DTLB LOAD TRANSLATION ACCESS:    9530966  HIT:    9475478  MISS:      55488  HIT %:    99.4178  MISS %:   0.582187   MPKI: 1.10976
DTLB PREFETCH  REQUESTED:          0  ISSUED:          0  USEFUL:          0  USELESS:          0
DTLB USEFUL LOAD PREFETCHES:          0 PREFETCH ISSUED TO LOWER LEVEL:          0  ACCURACY: -nan
DTLB TIMELY PREFETCHES:          0 LATE PREFETCHES: 0 DROPPED PREFETCHES: 0
DTLB PREFETCHES SAME FILL-ORIGIN LEVEL: 0 DIFFERENT FILL-ORIGIN LEVEL: 0
DTLB AVERAGE MISS LATENCY: 57.1667 cycles
DTLB RQ	ACCESS:   13897313	FORWARD:          0	MERGED:    4309552	TO_CACHE:    9587761

STLB TOTAL     ACCESS:     632174  HIT:     576689  MISS:      55485  HIT %:    91.2231  MISS %:    8.77686   MPKI: 1.1097
STLB LOAD TRANSLATION ACCESS:      55488  HIT:       1167  MISS:      54321  HIT %:    2.10316  MISS %:    97.8968   MPKI: 1.08642
STLB TRANSLATION FROM L1D PREFETCHER ACCESS:     576686  HIT:     575522  MISS:       1164  HIT %:    99.7982  MISS %:   0.201843   MPKI: 0.02328
STLB PREFETCH  REQUESTED:          0  ISSUED:          0  USEFUL:       1167  USELESS:          0
STLB USEFUL LOAD PREFETCHES:       1167 PREFETCH ISSUED TO LOWER LEVEL:          0  ACCURACY: inf
STLB TIMELY PREFETCHES:       1167 LATE PREFETCHES: 0 DROPPED PREFETCHES: 0
STLB PREFETCHES SAME FILL-ORIGIN LEVEL: 0 DIFFERENT FILL-ORIGIN LEVEL: 0
STLB AVERAGE MISS LATENCY: 49.1135 cycles
STLB RQ	ACCESS:     863557	FORWARD:          0	MERGED:     231383	TO_CACHE:     632174

STLB Hit, L1D data hit: 0
STLB Hit, L2C data hit: 0
STLB Hit, LLC data hit: 0
STLB Hit, LLC data miss: 0
STLB STLB hints to L2: 0
L1D TOTAL     ACCESS:   14525230  HIT:   13760504  MISS:     764726  HIT %:    94.7352  MISS %:    5.26481   MPKI: 15.2945
L1D LOAD      ACCESS:    6054117  HIT:    5795103  MISS:     259014  HIT %:    95.7217  MISS %:    4.27831   MPKI: 5.18028
L1D RFO       ACCESS:    7787951  HIT:    7787951  MISS:          0  HIT %:        100  MISS %:          0   MPKI: 0
L1D PREFETCH  ACCESS:     683162  HIT:     177450  MISS:     505712  HIT %:    25.9748  MISS %:    74.0252   MPKI: 10.1142
AGUS PREFETCH L1 MISS: 0
L1D PREFETCH  REQUESTED:    1616138  ISSUED:    1616138  USEFUL:     394838  USELESS:     110959
L1D USEFUL LOAD PREFETCHES:     394838 PREFETCH ISSUED TO LOWER LEVEL:     559355  ACCURACY: 70.5881
L1D TIMELY PREFETCHES:     394838 LATE PREFETCHES: 53638 DROPPED PREFETCHES: 0
L1D PREFETCHES SAME FILL-ORIGIN LEVEL: 559355 DIFFERENT FILL-ORIGIN LEVEL: 0
L1D AVERAGE MISS LATENCY: 214.91 cycles
L1D RQ	ACCESS:   17340486	FORWARD:          0	MERGED:   11106306	TO_CACHE:    6109367
L1D WQ	ACCESS:    7826908	FORWARD:     124813	MERGED:      38962	TO_CACHE:    7787946
L1D PQ	ACCESS:     808069	FORWARD:          0	MERGED:          0	TO_CACHE:     808069

L1D UNIQUE REGIONS ACCESSED: 0
L1D REGIONS CONFLICTS: 0
L1D Cross Page Prefetch Requests: 2407
L1D Same Page Prefetch Requests: 2136886
L1D ROI Sum of L1D PQ occupancy: 10504659
L1D PREFETCHES PUSHED FROM L2C: 0
L1I TOTAL     ACCESS:   10536810  HIT:   10536807  MISS:          3  HIT %:        100  MISS %: 2.84716e-05   MPKI: 6e-05
L1I LOAD      ACCESS:   10536810  HIT:   10536807  MISS:          3  HIT %:        100  MISS %: 2.84716e-05   MPKI: 6e-05
L1I PREFETCH  REQUESTED:          0  ISSUED:          0  USEFUL:          0  USELESS:          0
L1I USEFUL LOAD PREFETCHES:          0 PREFETCH ISSUED TO LOWER LEVEL:          0  ACCURACY: -nan
L1I TIMELY PREFETCHES:          0 LATE PREFETCHES: 0 DROPPED PREFETCHES: 0
L1I PREFETCHES SAME FILL-ORIGIN LEVEL: 0 DIFFERENT FILL-ORIGIN LEVEL: 0
L1I AVERAGE MISS LATENCY: 213 cycles
L1I RQ	ACCESS:   15086812	FORWARD:          0	MERGED:    4550002	TO_CACHE:   10536810

BTB TOTAL     ACCESS:    4193983  HIT:    4193963  MISS:         20  HIT %:    99.9995  MISS %: 0.000476874   MPKI: 0.0004
BTB BRANCH_DIRECT_JUMP	ACCESS:      80000  HIT:      79999  MISS:          1
BTB BRANCH_INDIRECT	ACCESS:          0  HIT:          0  MISS:          0
BTB BRANCH_CONDITIONAL	ACCESS:    3042372  HIT:    3042364  MISS:          8
BTB BRANCH_DIRECT_CALL	ACCESS:     535805  HIT:     535800  MISS:          5
BTB BRANCH_INDIRECT_CALL	ACCESS:          0  HIT:          0  MISS:          0
BTB BRANCH_RETURN	ACCESS:     535806  HIT:     535800  MISS:          6
BTB BRANCH_OTHER ACCESS:          0  HIT:          0  MISS:          0

L2C TOTAL     ACCESS:    1121948  HIT:     351682  MISS:     770266  HIT %:    31.3457  MISS %:    68.6543   MPKI: 15.4053
L2C LOAD      ACCESS:     205379  HIT:        336  MISS:     205043  HIT %:     0.1636  MISS %:    99.8364   MPKI: 4.10086
L2C DATA LOAD MPKI: 4.1008
L2C INSTRUCTION LOAD MPKI: 6e-05
L2C PREFETCH  ACCESS:     559350  HIT:       1123  MISS:     558227  HIT %:   0.200769  MISS %:    99.7992   MPKI: 11.1645
AGUS PREFETCH L1 MISS: 0
L2C DATA PREFETCH MPKI: 11.1645
L2C INSTRUCTION PREFETCH MPKI: 0
L2C WRITEBACK ACCESS:     301626  HIT:     301619  MISS:          7  HIT %:    99.9977  MISS %: 0.00232075   MPKI: 0.00014
L2C LOAD TRANSLATION ACCESS:      54425  HIT:      47590  MISS:       6835  HIT %:    87.4414  MISS %:    12.5586   MPKI: 0.1367
L2C TRANSLATION FROM L1D PREFETCHER ACCESS:       1168  HIT:       1014  MISS:        154  HIT %:    86.8151  MISS %:    13.1849   MPKI: 0.00308
L2C PREFETCH  REQUESTED:          0  ISSUED:          0  USEFUL:        485  USELESS:     557364
L2C USEFUL LOAD PREFETCHES:        485 PREFETCH ISSUED TO LOWER LEVEL:     558232  ACCURACY: 0.0868814
L2C TIMELY PREFETCHES:        485 LATE PREFETCHES: 0 DROPPED PREFETCHES: 0
L2C PREFETCHES SAME FILL-ORIGIN LEVEL: 0 DIFFERENT FILL-ORIGIN LEVEL: 0
L2C AVERAGE MISS LATENCY: 199.943 cycles
L2C RQ	ACCESS:     260972	FORWARD:          0	MERGED:          0	TO_CACHE:     260972
L2C WQ	ACCESS:     301626	FORWARD:          0	MERGED:          0	TO_CACHE:     301626
L2C PQ	ACCESS:     559355	FORWARD:          0	MERGED:          0	TO_CACHE:     559355

L2C Instructions Evicting Data 3
L2C Translations Evicting Data 6818
L2C Data Evicting Data 756206
L2C Instructions Evicting Instructions 0
L2C Translations Evicting Instructions 0
L2C Data Evicting Instructions 3
L2C Instructions Evicting Translations 0
L2C Translations Evicting Translations 171
L2C Data Evicting Translations 7058
L2C Dense regions hint from L2: 0
PSCL5 TOTAL     ACCESS:      55485  HIT:      55485  MISS:          0  HIT %:        100  MISS %:          0   MPKI: 0
PSCL5 LOAD TRANSLATION ACCESS:      54321  HIT:      54321  MISS:          0  HIT %:        100  MISS %:          0   MPKI: 0
PSCL5 TRANSLATION FROM L1D PREFETCHER ACCESS:       1164  HIT:       1164  MISS:          0  HIT %:        100  MISS %:          0   MPKI: 0
PSCL5 PREFETCH  REQUESTED:          0  ISSUED:          0  USEFUL:          0  USELESS:          0
PSCL5 USEFUL LOAD PREFETCHES:          0 PREFETCH ISSUED TO LOWER LEVEL:          0  ACCURACY: -nan
PSCL5 TIMELY PREFETCHES:          0 LATE PREFETCHES: 0 DROPPED PREFETCHES: 0
PSCL5 PREFETCHES SAME FILL-ORIGIN LEVEL: 0 DIFFERENT FILL-ORIGIN LEVEL: 0

PSCL4 TOTAL     ACCESS:      55485  HIT:      55485  MISS:          0  HIT %:        100  MISS %:          0   MPKI: 0
PSCL4 LOAD TRANSLATION ACCESS:      54321  HIT:      54321  MISS:          0  HIT %:        100  MISS %:          0   MPKI: 0
PSCL4 TRANSLATION FROM L1D PREFETCHER ACCESS:       1164  HIT:       1164  MISS:          0  HIT %:        100  MISS %:          0   MPKI: 0
PSCL4 PREFETCH  REQUESTED:          0  ISSUED:          0  USEFUL:          0  USELESS:          0
PSCL4 USEFUL LOAD PREFETCHES:          0 PREFETCH ISSUED TO LOWER LEVEL:          0  ACCURACY: -nan
PSCL4 TIMELY PREFETCHES:          0 LATE PREFETCHES: 0 DROPPED PREFETCHES: 0
PSCL4 PREFETCHES SAME FILL-ORIGIN LEVEL: 0 DIFFERENT FILL-ORIGIN LEVEL: 0

PSCL3 TOTAL     ACCESS:      55485  HIT:      55485  MISS:          0  HIT %:        100  MISS %:          0   MPKI: 0
PSCL3 LOAD TRANSLATION ACCESS:      54321  HIT:      54321  MISS:          0  HIT %:        100  MISS %:          0   MPKI: 0
PSCL3 TRANSLATION FROM L1D PREFETCHER ACCESS:       1164  HIT:       1164  MISS:          0  HIT %:        100  MISS %:          0   MPKI: 0
PSCL3 PREFETCH  REQUESTED:          0  ISSUED:          0  USEFUL:          0  USELESS:          0
PSCL3 USEFUL LOAD PREFETCHES:          0 PREFETCH ISSUED TO LOWER LEVEL:          0  ACCURACY: -nan
PSCL3 TIMELY PREFETCHES:          0 LATE PREFETCHES: 0 DROPPED PREFETCHES: 0
PSCL3 PREFETCHES SAME FILL-ORIGIN LEVEL: 0 DIFFERENT FILL-ORIGIN LEVEL: 0

PSCL2 TOTAL     ACCESS:      55485  HIT:      55372  MISS:        113  HIT %:    99.7963  MISS %:   0.203659   MPKI: 0.00226
PSCL2 LOAD TRANSLATION ACCESS:      54325  HIT:      54212  MISS:        113  HIT %:     99.792  MISS %:   0.208007   MPKI: 0.00226
PSCL2 TRANSLATION FROM L1D PREFETCHER ACCESS:       1160  HIT:       1160  MISS:          0  HIT %:        100  MISS %:          0   MPKI: 0
PSCL2 PREFETCH  REQUESTED:          0  ISSUED:          0  USEFUL:          0  USELESS:          0
PSCL2 USEFUL LOAD PREFETCHES:          0 PREFETCH ISSUED TO LOWER LEVEL:          0  ACCURACY: -nan
PSCL2 TIMELY PREFETCHES:          0 LATE PREFETCHES: 0 DROPPED PREFETCHES: 0
PSCL2 PREFETCHES SAME FILL-ORIGIN LEVEL: 0 DIFFERENT FILL-ORIGIN LEVEL: 0

LLC TOTAL     ACCESS:    1068620  HIT:     299221  MISS:     769399  HIT %:    28.0007  MISS %:    71.9993   MPKI: 15.388
LLC LOAD      ACCESS:     205043  HIT:        832  MISS:     204211  HIT %:   0.405769  MISS %:    99.5942   MPKI: 4.08422
LLC PREFETCH  ACCESS:     558227  HIT:         19  MISS:     558208  HIT %: 0.00340363  MISS %:    99.9966   MPKI: 11.1642
AGUS PREFETCH L1 MISS: 0
LLC WRITEBACK ACCESS:     298361  HIT:     298354  MISS:          7  HIT %:    99.9977  MISS %: 0.00234615   MPKI: 0.00014
LLC LOAD TRANSLATION ACCESS:       6835  HIT:         10  MISS:       6825  HIT %:   0.146306  MISS %:    99.8537   MPKI: 0.1365
LLC TRANSLATION FROM L1D PREFETCHER ACCESS:        154  HIT:          6  MISS:        148  HIT %:     3.8961  MISS %:    96.1039   MPKI: 0.00296
LLC PREFETCH  REQUESTED:          0  ISSUED:          0  USEFUL:        838  USELESS:     555368
LLC USEFUL LOAD PREFETCHES:        838 PREFETCH ISSUED TO LOWER LEVEL:     558212  ACCURACY: 0.150122
LLC TIMELY PREFETCHES:        838 LATE PREFETCHES: 0 DROPPED PREFETCHES: 0
LLC PREFETCHES SAME FILL-ORIGIN LEVEL: 0 DIFFERENT FILL-ORIGIN LEVEL: 0
LLC AVERAGE MISS LATENCY: 170.024 cycles
LLC RQ	ACCESS:     212032	FORWARD:          0	MERGED:          0	TO_CACHE:     212032
LLC WQ	ACCESS:     298361	FORWARD:          0	MERGED:          0	TO_CACHE:     298361
LLC PQ	ACCESS:     558232	FORWARD:          0	MERGED:          0	TO_CACHE:     558232

LLC Dense regions hint to LLC: 0

RAW hits: 40560
Loads Generated: 17381038
Loads sent to L1D: 17340486
Stores Generated: 7826902
Stores sent to L1D: 7826908
Major fault: 0 Minor fault: 89779
Allocated PAGES: 89779

stream: 
stream:times selected: 3952292
stream:pref_reqs: 3875593
stream:pref_reqs_filtered_out: 3194900
stream:pref_filled: 342478
stream:pref_useful: 8580
stream:pref_late: 10592
stream:misses: 242589
stream:misses_by_poll: 0

CS: 
CS:times selected: 1574921
CS:pref_reqs: 4650149
CS:pref_reqs_filtered_out: 3945330
CS:pref_filled: 551922
CS:pref_useful: 551888
CS:pref_late: 48786
CS:misses: 65207
CS:misses_by_poll: 6896

CPLX: 
CPLX:times selected: 2084301
CPLX:pref_reqs: 5089329
CPLX:pref_reqs_filtered_out: 4260600
CPLX:pref_filled: 523205
CPLX:pref_useful: 449036
CPLX:pref_late: 4708
CPLX:misses: 153566
CPLX:misses_by_poll: 770

ISB: 
ISB:total access:11899034
ISB:times selected:562497
ISB:canary counter:0
ISB:pref_reqs: 25016
ISB:pref_reqs_filtered_out: 22153
ISB:pref_filled: 2268
ISB:pref_useful: 331
ISB:pref_late: 0
ISB:misses: 60714
ISB:misses_by_poll: 0
ISB:Stream end: 542019
ISB:No Prediction: 11336537 95.2728
ISB:No translation: 405682307
ISB:Predictions: 2588 0.0217497

NL_L1: 
NL:times selected: 1187
NL:pref_reqs: 1187
NL:pref_reqs_filtered_out: 805
NL:pref_filled: 382
NL:pref_useful: 131
NL:pref_late: 0
NL:misses: 251
NL:misses_by_poll: 0

Coverage: 60.3864
total selections: 8175198
total_filled: 505712
total_useful: 394838
total_late: 66520
total_polluted: 7666
total_misses_after_warmup: 314265
conflicts: 587403

test: 0
ISB Prefetcher final stats
Prefetcher final stats
Training Unit Size: 60
Addr table size: 564122 564123
Triggers: 11899034
Structural address exists: 562497 4.72725
No Prediction: 11336537 95.2728
Prefetches issued: 2588 0.0217497
Stream end: 542019
No translation: 405682307
%Stream divergence: 17332 0.145659
Stream divergence -- new stream: 0
A: 0
B: 0
C: 3952293
D: 3952293
E: 3952293
F: 0
G: 0

DRAM Statistics
 CHANNEL 0
 RQ ROW_BUFFER_HIT:     241917  ROW_BUFFER_MISS:     527475
 DBUS_CONGESTED:         38
 WQ ROW_BUFFER_HIT:     101011  ROW_BUFFER_MISS:     186884  FULL:          0

 AVG_CONGESTED_CYCLE: 4
 All warmup complete: 2
Channel 0 Bank busy for read cycles: 0
Channel 0 Bank busy for write cycles: 0
Channel 0
Rank 0
0banks busy for read cycles: 20353507
0banks busy for write cycles: 111421
1banks busy for read cycles: 18005593
1banks busy for write cycles: 11140304
2banks busy for read cycles: 12917121
2banks busy for write cycles: 10069782
3banks busy for read cycles: 7393311
3banks busy for write cycles: 18112
4banks busy for read cycles: 5523828
4banks busy for write cycles: 25465
5banks busy for read cycles: 569895
5banks busy for write cycles: 29037
6banks busy for read cycles: 143091
6banks busy for write cycles: 32736
7banks busy for read cycles: 7052
7banks busy for write cycles: 135747
8banks busy for read cycles: 0
8banks busy for write cycles: 1474259

CPU 0 Branch Prediction Accuracy: 78.2145% MPKI: 18.7089 Average ROB Occupancy at Mispredict: 40.4663
Branch types
NOT_BRANCH: 45705861 91.4117%
BRANCH_DIRECT_JUMP: 80000 0.16%
BRANCH_INDIRECT: 0 0%
BRANCH_CONDITIONAL: 3142280 6.28456%
BRANCH_DIRECT_CALL: 535805 1.07161%
BRANCH_INDIRECT_CALL: 0 0%
BRANCH_RETURN: 535806 1.07161%
BRANCH_OTHER: 0 0%

DRAM PAGES: 1048576
Allocated PAGES: 89779
