
*** ChampSim Multicore Out-of-Order Simulator ***

Warmup Instructions: 50000000
Simulation Instructions: 50000000
Number of CPUs: 1
LLC sets: 2048
LLC ways: 16
Off-chip DRAM Size: 4096 MB Channels: 1 Width: 64-bit Data Rate: 6400 MT/s
CPU 0 runs ./traces/SPEC-CPU2017/433.milc-127B.champsimtrace.xz
.xz
CPU 0 Bimodal branch predictor
BTB has LRU replacement policy
ITLB has LRU replacement policy
DTLB has LRU replacement policy
STLB has LRU replacement policy
L1I has LRU replacement policy
L1D has LRU replacement policy
Ideal ISB Prefetching
L2C has LRU replacement policy
LLC has LRU replacement policy
Heartbeat CPU 0 instructions: 10000002 cycles: 2799459 heartbeat IPC: 3.57212 cumulative IPC: 3.57212 (Simulation time: 0 hr 0 min 53 sec) 
Heartbeat CPU 0 instructions: 20000000 cycles: 5760275 heartbeat IPC: 3.37745 cumulative IPC: 3.47206 (Simulation time: 0 hr 1 min 54 sec) 
Heartbeat CPU 0 instructions: 30000000 cycles: 9142071 heartbeat IPC: 2.95701 cumulative IPC: 3.28153 (Simulation time: 0 hr 3 min 5 sec) 
Heartbeat CPU 0 instructions: 40000000 cycles: 12045333 heartbeat IPC: 3.4444 cumulative IPC: 3.32079 (Simulation time: 0 hr 4 min 10 sec) 
Heartbeat CPU 0 instructions: 50000002 cycles: 14947580 heartbeat IPC: 3.44561 cumulative IPC: 3.34502 (Simulation time: 0 hr 5 min 14 sec) 

Warmup complete CPU 0 instructions: 50000002 cycles: 14947580 (Simulation time: 0 hr 5 min 14 sec) 

Heartbeat CPU 0 instructions: 60000000 cycles: 34162136 heartbeat IPC: 0.520439 cumulative IPC: 0.520439 (Simulation time: 0 hr 6 min 43 sec) 
Heartbeat CPU 0 instructions: 70000000 cycles: 53280247 heartbeat IPC: 0.523064 cumulative IPC: 0.521748 (Simulation time: 0 hr 8 min 5 sec) 
Heartbeat CPU 0 instructions: 80000000 cycles: 72398638 heartbeat IPC: 0.523057 cumulative IPC: 0.522184 (Simulation time: 0 hr 9 min 26 sec) 
Heartbeat CPU 0 instructions: 90000003 cycles: 91511704 heartbeat IPC: 0.523202 cumulative IPC: 0.522438 (Simulation time: 0 hr 10 min 29 sec) 
Heartbeat CPU 0 instructions: 100000000 cycles: 134469302 heartbeat IPC: 0.232788 cumulative IPC: 0.418334 (Simulation time: 0 hr 11 min 35 sec) 
Finished CPU 0 instructions: 50000000 cycles: 119521730 cumulative IPC: 0.418334 (Simulation time: 0 hr 11 min 35 sec) 

ChampSim completed all CPUs

Region of Interest Statistics

CPU 0 cumulative IPC: 0.418334 instructions: 50000000 cycles: 119521730
ITLB TOTAL     ACCESS:    8938307  HIT:    8938307  MISS:          0  HIT %:        100  MISS %:          0   MPKI: 0
ITLB LOAD TRANSLATION ACCESS:    8938307  HIT:    8938307  MISS:          0  HIT %:        100  MISS %:          0   MPKI: 0
ITLB PREFETCH  REQUESTED:          0  ISSUED:          0  USEFUL:          0  USELESS:          0
ITLB USEFUL LOAD PREFETCHES:          0 PREFETCH ISSUED TO LOWER LEVEL:          0  ACCURACY: -nan
ITLB TIMELY PREFETCHES:          0 LATE PREFETCHES: 0 DROPPED PREFETCHES: 0
ITLB PREFETCHES SAME FILL-ORIGIN LEVEL: 0 DIFFERENT FILL-ORIGIN LEVEL: 0
ITLB AVERAGE MISS LATENCY: -nan cycles
ITLB RQ	ACCESS:   10536810	FORWARD:          0	MERGED:    1598504	TO_CACHE:    8938306

DTLB TOTAL     ACCESS:    9592090  HIT:    9536602  MISS:      55488  HIT %:    99.4215  MISS %:   0.578477   MPKI: 1.10976
DTLB LOAD TRANSLATION ACCESS:    9592090  HIT:    9536602  MISS:      55488  HIT %:    99.4215  MISS %:   0.578477   MPKI: 1.10976
DTLB PREFETCH  REQUESTED:          0  ISSUED:          0  USEFUL:          0  USELESS:          0
DTLB USEFUL LOAD PREFETCHES:          0 PREFETCH ISSUED TO LOWER LEVEL:          0  ACCURACY: -nan
DTLB TIMELY PREFETCHES:          0 LATE PREFETCHES: 0 DROPPED PREFETCHES: 0
DTLB PREFETCHES SAME FILL-ORIGIN LEVEL: 0 DIFFERENT FILL-ORIGIN LEVEL: 0
DTLB AVERAGE MISS LATENCY: 57.5711 cycles
DTLB RQ	ACCESS:   13824472	FORWARD:          0	MERGED:    4175613	TO_CACHE:    9648859

STLB TOTAL     ACCESS:      55488  HIT:          0  MISS:      55488  HIT %:          0  MISS %:        100   MPKI: 1.10976
STLB LOAD TRANSLATION ACCESS:      55488  HIT:          0  MISS:      55488  HIT %:          0  MISS %:        100   MPKI: 1.10976
STLB PREFETCH  REQUESTED:          0  ISSUED:          0  USEFUL:          0  USELESS:          0
STLB USEFUL LOAD PREFETCHES:          0 PREFETCH ISSUED TO LOWER LEVEL:          0  ACCURACY: -nan
STLB TIMELY PREFETCHES:          0 LATE PREFETCHES: 0 DROPPED PREFETCHES: 0
STLB PREFETCHES SAME FILL-ORIGIN LEVEL: 0 DIFFERENT FILL-ORIGIN LEVEL: 0
STLB AVERAGE MISS LATENCY: 48.5711 cycles
STLB RQ	ACCESS:      55488	FORWARD:          0	MERGED:          0	TO_CACHE:      55488

STLB Hit, L1D data hit: 0
STLB Hit, L2C data hit: 0
STLB Hit, LLC data hit: 0
STLB Hit, LLC data miss: 0
STLB STLB hints to L2: 0
L1D TOTAL     ACCESS:   13561858  HIT:   12908006  MISS:     653852  HIT %:    95.1787  MISS %:    4.82126   MPKI: 13.077
L1D LOAD      ACCESS:    5734945  HIT:    5081093  MISS:     653852  HIT %:    88.5988  MISS %:    11.4012   MPKI: 13.077
L1D RFO       ACCESS:    7826913  HIT:    7826913  MISS:          0  HIT %:        100  MISS %:          0   MPKI: 0
L1D PREFETCH  REQUESTED:          0  ISSUED:          0  USEFUL:          0  USELESS:          0
L1D USEFUL LOAD PREFETCHES:          0 PREFETCH ISSUED TO LOWER LEVEL:          0  ACCURACY: -nan
L1D TIMELY PREFETCHES:          0 LATE PREFETCHES: 0 DROPPED PREFETCHES: 0
L1D PREFETCHES SAME FILL-ORIGIN LEVEL: 0 DIFFERENT FILL-ORIGIN LEVEL: 0
L1D AVERAGE MISS LATENCY: 174.673 cycles
L1D RQ	ACCESS:   17378859	FORWARD:          0	MERGED:   11218109	TO_CACHE:    5997564
L1D WQ	ACCESS:    7826908	FORWARD:     163186	MERGED:          0	TO_CACHE:    7826908

L1D UNIQUE REGIONS ACCESSED: 0
L1D REGIONS CONFLICTS: 0
L1D Cross Page Prefetch Requests: 0
L1D Same Page Prefetch Requests: 0
L1D ROI Sum of L1D PQ occupancy: 0
L1D PREFETCHES PUSHED FROM L2C: 0
L1I TOTAL     ACCESS:   10536810  HIT:   10536807  MISS:          3  HIT %:        100  MISS %: 2.84716e-05   MPKI: 6e-05
L1I LOAD      ACCESS:   10536810  HIT:   10536807  MISS:          3  HIT %:        100  MISS %: 2.84716e-05   MPKI: 6e-05
L1I PREFETCH  REQUESTED:          0  ISSUED:          0  USEFUL:          0  USELESS:          0
L1I USEFUL LOAD PREFETCHES:          0 PREFETCH ISSUED TO LOWER LEVEL:          0  ACCURACY: -nan
L1I TIMELY PREFETCHES:          0 LATE PREFETCHES: 0 DROPPED PREFETCHES: 0
L1I PREFETCHES SAME FILL-ORIGIN LEVEL: 0 DIFFERENT FILL-ORIGIN LEVEL: 0
L1I AVERAGE MISS LATENCY: 213 cycles
L1I RQ	ACCESS:   15086752	FORWARD:          0	MERGED:    4549942	TO_CACHE:   10536810

BTB TOTAL     ACCESS:    4193983  HIT:    4193963  MISS:         20  HIT %:    99.9995  MISS %: 0.000476874   MPKI: 0.0004
BTB BRANCH_DIRECT_JUMP	ACCESS:      80000  HIT:      79999  MISS:          1
BTB BRANCH_INDIRECT	ACCESS:          0  HIT:          0  MISS:          0
BTB BRANCH_CONDITIONAL	ACCESS:    3042372  HIT:    3042364  MISS:          8
BTB BRANCH_DIRECT_CALL	ACCESS:     535805  HIT:     535800  MISS:          5
BTB BRANCH_INDIRECT_CALL	ACCESS:          0  HIT:          0  MISS:          0
BTB BRANCH_RETURN	ACCESS:     535806  HIT:     535800  MISS:          6
BTB BRANCH_OTHER ACCESS:          0  HIT:          0  MISS:          0

L2C TOTAL     ACCESS:    1077648  HIT:     416821  MISS:     660827  HIT %:    38.6788  MISS %:    61.3212   MPKI: 13.2165
L2C LOAD      ACCESS:     653855  HIT:      66589  MISS:     587266  HIT %:    10.1841  MISS %:    89.8159   MPKI: 11.7453
L2C DATA LOAD MPKI: 11.7453
L2C INSTRUCTION LOAD MPKI: 6e-05
L2C PREFETCH  ACCESS:      66577  HIT:          0  MISS:      66577  HIT %:          0  MISS %:        100   MPKI: 1.33154
AGUS PREFETCH L1 MISS: 0
L2C DATA PREFETCH MPKI: 1.33154
L2C INSTRUCTION PREFETCH MPKI: 0
L2C WRITEBACK ACCESS:     301620  HIT:     301614  MISS:          6  HIT %:     99.998  MISS %: 0.00198926   MPKI: 0.00012
L2C LOAD TRANSLATION ACCESS:      55596  HIT:      48618  MISS:       6978  HIT %:    87.4487  MISS %:    12.5513   MPKI: 0.13956
L2C PREFETCH  REQUESTED:      66577  ISSUED:      66577  USEFUL:      66589  USELESS:          0
L2C USEFUL LOAD PREFETCHES:      66589 PREFETCH ISSUED TO LOWER LEVEL:      66577  ACCURACY: 100.018
L2C TIMELY PREFETCHES:      66589 LATE PREFETCHES: 0 DROPPED PREFETCHES: 0
L2C PREFETCHES SAME FILL-ORIGIN LEVEL: 66577 DIFFERENT FILL-ORIGIN LEVEL: 0
L2C AVERAGE MISS LATENCY: 178.51 cycles
L2C RQ	ACCESS:     709451	FORWARD:          0	MERGED:          0	TO_CACHE:     709451
L2C WQ	ACCESS:     301620	FORWARD:          0	MERGED:          0	TO_CACHE:     301620
L2C PQ	ACCESS:      66577	FORWARD:          0	MERGED:          0	TO_CACHE:      66577

L2C Instructions Evicting Data 3
L2C Translations Evicting Data 6807
L2C Data Evicting Data 646755
L2C Instructions Evicting Instructions 0
L2C Translations Evicting Instructions 0
L2C Data Evicting Instructions 3
L2C Instructions Evicting Translations 0
L2C Translations Evicting Translations 171
L2C Data Evicting Translations 7082
L2C Dense regions hint from L2: 0
PSCL5 TOTAL     ACCESS:      55488  HIT:      55488  MISS:          0  HIT %:        100  MISS %:          0   MPKI: 0
PSCL5 LOAD TRANSLATION ACCESS:      55488  HIT:      55488  MISS:          0  HIT %:        100  MISS %:          0   MPKI: 0
PSCL5 PREFETCH  REQUESTED:          0  ISSUED:          0  USEFUL:          0  USELESS:          0
PSCL5 USEFUL LOAD PREFETCHES:          0 PREFETCH ISSUED TO LOWER LEVEL:          0  ACCURACY: -nan
PSCL5 TIMELY PREFETCHES:          0 LATE PREFETCHES: 0 DROPPED PREFETCHES: 0
PSCL5 PREFETCHES SAME FILL-ORIGIN LEVEL: 0 DIFFERENT FILL-ORIGIN LEVEL: 0

PSCL4 TOTAL     ACCESS:      55488  HIT:      55488  MISS:          0  HIT %:        100  MISS %:          0   MPKI: 0
PSCL4 LOAD TRANSLATION ACCESS:      55488  HIT:      55488  MISS:          0  HIT %:        100  MISS %:          0   MPKI: 0
PSCL4 PREFETCH  REQUESTED:          0  ISSUED:          0  USEFUL:          0  USELESS:          0
PSCL4 USEFUL LOAD PREFETCHES:          0 PREFETCH ISSUED TO LOWER LEVEL:          0  ACCURACY: -nan
PSCL4 TIMELY PREFETCHES:          0 LATE PREFETCHES: 0 DROPPED PREFETCHES: 0
PSCL4 PREFETCHES SAME FILL-ORIGIN LEVEL: 0 DIFFERENT FILL-ORIGIN LEVEL: 0

PSCL3 TOTAL     ACCESS:      55488  HIT:      55488  MISS:          0  HIT %:        100  MISS %:          0   MPKI: 0
PSCL3 LOAD TRANSLATION ACCESS:      55488  HIT:      55488  MISS:          0  HIT %:        100  MISS %:          0   MPKI: 0
PSCL3 PREFETCH  REQUESTED:          0  ISSUED:          0  USEFUL:          0  USELESS:          0
PSCL3 USEFUL LOAD PREFETCHES:          0 PREFETCH ISSUED TO LOWER LEVEL:          0  ACCURACY: -nan
PSCL3 TIMELY PREFETCHES:          0 LATE PREFETCHES: 0 DROPPED PREFETCHES: 0
PSCL3 PREFETCHES SAME FILL-ORIGIN LEVEL: 0 DIFFERENT FILL-ORIGIN LEVEL: 0

PSCL2 TOTAL     ACCESS:      55488  HIT:      55375  MISS:        113  HIT %:    99.7964  MISS %:   0.203648   MPKI: 0.00226
PSCL2 LOAD TRANSLATION ACCESS:      55488  HIT:      55375  MISS:        113  HIT %:    99.7964  MISS %:   0.203648   MPKI: 0.00226
PSCL2 PREFETCH  REQUESTED:          0  ISSUED:          0  USEFUL:          0  USELESS:          0
PSCL2 USEFUL LOAD PREFETCHES:          0 PREFETCH ISSUED TO LOWER LEVEL:          0  ACCURACY: -nan
PSCL2 TIMELY PREFETCHES:          0 LATE PREFETCHES: 0 DROPPED PREFETCHES: 0
PSCL2 PREFETCHES SAME FILL-ORIGIN LEVEL: 0 DIFFERENT FILL-ORIGIN LEVEL: 0

LLC TOTAL     ACCESS:     959176  HIT:     298354  MISS:     660822  HIT %:    31.1052  MISS %:    68.8948   MPKI: 13.2164
LLC LOAD      ACCESS:     587266  HIT:          0  MISS:     587266  HIT %:          0  MISS %:        100   MPKI: 11.7453
LLC PREFETCH  ACCESS:      66577  HIT:          0  MISS:      66577  HIT %:          0  MISS %:        100   MPKI: 1.33154
AGUS PREFETCH L1 MISS: 0
LLC WRITEBACK ACCESS:     298355  HIT:     298349  MISS:          6  HIT %:     99.998  MISS %: 0.00201103   MPKI: 0.00012
LLC LOAD TRANSLATION ACCESS:       6978  HIT:          5  MISS:       6973  HIT %:  0.0716538  MISS %:    99.9283   MPKI: 0.13946
LLC PREFETCH  REQUESTED:          0  ISSUED:          0  USEFUL:          0  USELESS:      78973
LLC USEFUL LOAD PREFETCHES:          0 PREFETCH ISSUED TO LOWER LEVEL:      66577  ACCURACY: 0
LLC TIMELY PREFETCHES:          0 LATE PREFETCHES: 0 DROPPED PREFETCHES: 0
LLC PREFETCHES SAME FILL-ORIGIN LEVEL: 0 DIFFERENT FILL-ORIGIN LEVEL: 0
LLC AVERAGE MISS LATENCY: 148.401 cycles
LLC RQ	ACCESS:     594244	FORWARD:          0	MERGED:          0	TO_CACHE:     594244
LLC WQ	ACCESS:     298355	FORWARD:          0	MERGED:          0	TO_CACHE:     298355
LLC PQ	ACCESS:      66577	FORWARD:          0	MERGED:          0	TO_CACHE:      66577

LLC Dense regions hint to LLC: 0

RAW hits: 2187
Loads Generated: 17381038
Loads sent to L1D: 17378859
Stores Generated: 7826902
Stores sent to L1D: 7826908
Major fault: 0 Minor fault: 89779
Allocated PAGES: 89779
Prefetcher final stats
Training Unit Size: 46
Addr table size: 1475380 1475380


Triggers: 1486575
No Prediction: 1475406 99.2487
Stream end: 97
No translation: 365 0.0245531
Predictions: 89153 5.99721


Stream divergence: 4 0.000269075
Stream divergence -- new stream: 0

DRAM Statistics
 CHANNEL 0
 RQ ROW_BUFFER_HIT:     155174  ROW_BUFFER_MISS:     505642
 DBUS_CONGESTED:         20
 WQ ROW_BUFFER_HIT:     105054  ROW_BUFFER_MISS:     182850  FULL:          0

 AVG_CONGESTED_CYCLE: 4
 All warmup complete: 2
Channel 0 Bank busy for read cycles: 0
Channel 0 Bank busy for write cycles: 0
Channel 0
Rank 0
0banks busy for read cycles: 41527425
0banks busy for write cycles: 103240
1banks busy for read cycles: 28787058
1banks busy for write cycles: 3942662
2banks busy for read cycles: 14585270
2banks busy for write cycles: 17960161
3banks busy for read cycles: 5962181
3banks busy for write cycles: 2275071
4banks busy for read cycles: 63579
4banks busy for write cycles: 1620214
5banks busy for read cycles: 103338
5banks busy for write cycles: 649724
6banks busy for read cycles: 163278
6banks busy for write cycles: 644853
7banks busy for read cycles: 139703
7banks busy for write cycles: 318393
8banks busy for read cycles: 629052
8banks busy for write cycles: 46529

CPU 0 Branch Prediction Accuracy: 78.2145% MPKI: 18.7089 Average ROB Occupancy at Mispredict: 49.506
Branch types
NOT_BRANCH: 45705861 91.4117%
BRANCH_DIRECT_JUMP: 80000 0.16%
BRANCH_INDIRECT: 0 0%
BRANCH_CONDITIONAL: 3142280 6.28456%
BRANCH_DIRECT_CALL: 535805 1.07161%
BRANCH_INDIRECT_CALL: 0 0%
BRANCH_RETURN: 535806 1.07161%
BRANCH_OTHER: 0 0%

DRAM PAGES: 1048576
Allocated PAGES: 89779
