
*** ChampSim Multicore Out-of-Order Simulator ***

Warmup Instructions: 50000000
Simulation Instructions: 50000000
Number of CPUs: 1
LLC sets: 2048
LLC ways: 16
Off-chip DRAM Size: 4096 MB Channels: 1 Width: 64-bit Data Rate: 6400 MT/s
CPU 0 runs ./traces/SPEC-CPU2017/433.milc-127B.champsimtrace.xz
.xz
CPU 0 Bimodal branch predictor
BTB has LRU replacement policy
ITLB has LRU replacement policy
DTLB has LRU replacement policy
STLB has LRU replacement policy
L1I has LRU replacement policy
L1D has LRU replacement policy
L2C has LRU replacement policy
LLC has LRU replacement policy
Heartbeat CPU 0 instructions: 10000002 cycles: 2767275 heartbeat IPC: 3.61366 cumulative IPC: 3.61366 (Simulation time: 0 hr 10 min 57 sec) 
Heartbeat CPU 0 instructions: 20000000 cycles: 5697127 heartbeat IPC: 3.41314 cumulative IPC: 3.51054 (Simulation time: 0 hr 23 min 43 sec) 
Heartbeat CPU 0 instructions: 30000000 cycles: 9057992 heartbeat IPC: 2.97542 cumulative IPC: 3.31199 (Simulation time: 0 hr 34 min 46 sec) 
Heartbeat CPU 0 instructions: 40000000 cycles: 11942994 heartbeat IPC: 3.4662 cumulative IPC: 3.34924 (Simulation time: 0 hr 43 min 39 sec) 
Heartbeat CPU 0 instructions: 50000002 cycles: 14827991 heartbeat IPC: 3.46621 cumulative IPC: 3.372 (Simulation time: 0 hr 53 min 41 sec) 

Warmup complete CPU 0 instructions: 50000002 cycles: 14827991 (Simulation time: 0 hr 53 min 41 sec) 

Heartbeat CPU 0 instructions: 60000000 cycles: 32208871 heartbeat IPC: 0.575345 cumulative IPC: 0.575345 (Simulation time: 0 hr 58 min 46 sec) 
Heartbeat CPU 0 instructions: 70000002 cycles: 49574206 heartbeat IPC: 0.57586 cumulative IPC: 0.575602 (Simulation time: 1 hr 4 min 4 sec) 
Heartbeat CPU 0 instructions: 80000000 cycles: 66933216 heartbeat IPC: 0.57607 cumulative IPC: 0.575758 (Simulation time: 1 hr 8 min 55 sec) 
Heartbeat CPU 0 instructions: 90000001 cycles: 84295150 heartbeat IPC: 0.575973 cumulative IPC: 0.575812 (Simulation time: 1 hr 13 min 27 sec) 
Heartbeat CPU 0 instructions: 100000000 cycles: 102752911 heartbeat IPC: 0.541777 cumulative IPC: 0.568667 (Simulation time: 1 hr 16 min 39 sec) 
Finished CPU 0 instructions: 50000000 cycles: 87924928 cumulative IPC: 0.568667 (Simulation time: 1 hr 16 min 39 sec) 

ChampSim completed all CPUs

Region of Interest Statistics

CPU 0 cumulative IPC: 0.568667 instructions: 50000000 cycles: 87924928
ITLB TOTAL     ACCESS:    8938307  HIT:    8938307  MISS:          0  HIT %:        100  MISS %:          0   MPKI: 0
ITLB LOAD TRANSLATION ACCESS:    8938307  HIT:    8938307  MISS:          0  HIT %:        100  MISS %:          0   MPKI: 0
ITLB PREFETCH  REQUESTED:          0  ISSUED:          0  USEFUL:          0  USELESS:          0
ITLB USEFUL LOAD PREFETCHES:          0 PREFETCH ISSUED TO LOWER LEVEL:          0  ACCURACY: -nan
ITLB TIMELY PREFETCHES:          0 LATE PREFETCHES: 0 DROPPED PREFETCHES: 0
ITLB PREFETCHES SAME FILL-ORIGIN LEVEL: 0 DIFFERENT FILL-ORIGIN LEVEL: 0
ITLB AVERAGE MISS LATENCY: -nan cycles
ITLB RQ	ACCESS:   10536810	FORWARD:          0	MERGED:    1598504	TO_CACHE:    8938306

DTLB TOTAL     ACCESS:    9536381  HIT:    9480893  MISS:      55488  HIT %:    99.4181  MISS %:   0.581856   MPKI: 1.10976
DTLB LOAD TRANSLATION ACCESS:    9536381  HIT:    9480893  MISS:      55488  HIT %:    99.4181  MISS %:   0.581856   MPKI: 1.10976
DTLB PREFETCH  REQUESTED:          0  ISSUED:          0  USEFUL:          0  USELESS:          0
DTLB USEFUL LOAD PREFETCHES:          0 PREFETCH ISSUED TO LOWER LEVEL:          0  ACCURACY: -nan
DTLB TIMELY PREFETCHES:          0 LATE PREFETCHES: 0 DROPPED PREFETCHES: 0
DTLB PREFETCHES SAME FILL-ORIGIN LEVEL: 0 DIFFERENT FILL-ORIGIN LEVEL: 0
DTLB AVERAGE MISS LATENCY: 57.3319 cycles
DTLB RQ	ACCESS:   13898576	FORWARD:          0	MERGED:    4305395	TO_CACHE:    9593181

STLB TOTAL     ACCESS:     662527  HIT:     607039  MISS:      55488  HIT %:    91.6248  MISS %:    8.37521   MPKI: 1.10976
STLB LOAD TRANSLATION ACCESS:      55488  HIT:       1131  MISS:      54357  HIT %:    2.03828  MISS %:    97.9617   MPKI: 1.08714
STLB TRANSLATION FROM L1D PREFETCHER ACCESS:     607039  HIT:     605908  MISS:       1131  HIT %:    99.8137  MISS %:   0.186314   MPKI: 0.02262
STLB PREFETCH  REQUESTED:          0  ISSUED:          0  USEFUL:       1131  USELESS:          0
STLB USEFUL LOAD PREFETCHES:       1131 PREFETCH ISSUED TO LOWER LEVEL:          0  ACCURACY: inf
STLB TIMELY PREFETCHES:       1131 LATE PREFETCHES: 0 DROPPED PREFETCHES: 0
STLB PREFETCHES SAME FILL-ORIGIN LEVEL: 0 DIFFERENT FILL-ORIGIN LEVEL: 0
STLB AVERAGE MISS LATENCY: 49.1136 cycles
STLB RQ	ACCESS:     938364	FORWARD:          0	MERGED:     275837	TO_CACHE:     662527

STLB Hit, L1D data hit: 0
STLB Hit, L2C data hit: 0
STLB Hit, LLC data hit: 0
STLB Hit, LLC data miss: 0
STLB STLB hints to L2: 0
L1D TOTAL     ACCESS:   14601573  HIT:   13838125  MISS:     763448  HIT %:    94.7715  MISS %:    5.22853   MPKI: 15.269
L1D LOAD      ACCESS:    6055991  HIT:    5797491  MISS:     258500  HIT %:    95.7315  MISS %:     4.2685   MPKI: 5.17
L1D RFO       ACCESS:    7787989  HIT:    7787989  MISS:          0  HIT %:        100  MISS %:          0   MPKI: 0
L1D PREFETCH  ACCESS:     757593  HIT:     252645  MISS:     504948  HIT %:    33.3484  MISS %:    66.6516   MPKI: 10.099
AGUS PREFETCH L1 MISS: 0
L1D PREFETCH  REQUESTED:    1766147  ISSUED:    1765846  USEFUL:     395351  USELESS:     109682
L1D USEFUL LOAD PREFETCHES:     395351 PREFETCH ISSUED TO LOWER LEVEL:     558557  ACCURACY: 70.7808
L1D TIMELY PREFETCHES:     395351 LATE PREFETCHES: 53604 DROPPED PREFETCHES: 0
L1D PREFETCHES SAME FILL-ORIGIN LEVEL: 558557 DIFFERENT FILL-ORIGIN LEVEL: 0
L1D AVERAGE MISS LATENCY: 214.469 cycles
L1D RQ	ACCESS:   17340520	FORWARD:          0	MERGED:   11105081	TO_CACHE:    6110592
L1D WQ	ACCESS:    7826908	FORWARD:     124941	MERGED:      38924	TO_CACHE:    7787984
L1D PQ	ACCESS:     882970	FORWARD:          0	MERGED:          0	TO_CACHE:     882876

L1D UNIQUE REGIONS ACCESSED: 0
L1D REGIONS CONFLICTS: 0
L1D Cross Page Prefetch Requests: 10274
L1D Same Page Prefetch Requests: 2243866
L1D ROI Sum of L1D PQ occupancy: 11535146
L1D PREFETCHES PUSHED FROM L2C: 0
L1I TOTAL     ACCESS:   10536810  HIT:   10536807  MISS:          3  HIT %:        100  MISS %: 2.84716e-05   MPKI: 6e-05
L1I LOAD      ACCESS:   10536810  HIT:   10536807  MISS:          3  HIT %:        100  MISS %: 2.84716e-05   MPKI: 6e-05
L1I PREFETCH  REQUESTED:          0  ISSUED:          0  USEFUL:          0  USELESS:          0
L1I USEFUL LOAD PREFETCHES:          0 PREFETCH ISSUED TO LOWER LEVEL:          0  ACCURACY: -nan
L1I TIMELY PREFETCHES:          0 LATE PREFETCHES: 0 DROPPED PREFETCHES: 0
L1I PREFETCHES SAME FILL-ORIGIN LEVEL: 0 DIFFERENT FILL-ORIGIN LEVEL: 0
L1I AVERAGE MISS LATENCY: 213 cycles
L1I RQ	ACCESS:   15086731	FORWARD:          0	MERGED:    4549921	TO_CACHE:   10536810

BTB TOTAL     ACCESS:    4193983  HIT:    4193963  MISS:         20  HIT %:    99.9995  MISS %: 0.000476874   MPKI: 0.0004
BTB BRANCH_DIRECT_JUMP	ACCESS:      80000  HIT:      79999  MISS:          1
BTB BRANCH_INDIRECT	ACCESS:          0  HIT:          0  MISS:          0
BTB BRANCH_CONDITIONAL	ACCESS:    3042372  HIT:    3042364  MISS:          8
BTB BRANCH_DIRECT_CALL	ACCESS:     535805  HIT:     535800  MISS:          5
BTB BRANCH_INDIRECT_CALL	ACCESS:          0  HIT:          0  MISS:          0
BTB BRANCH_RETURN	ACCESS:     535806  HIT:     535800  MISS:          6
BTB BRANCH_OTHER ACCESS:          0  HIT:          0  MISS:          0

L2C TOTAL     ACCESS:    1120672  HIT:     351379  MISS:     769293  HIT %:    31.3543  MISS %:    68.6457   MPKI: 15.3859
L2C LOAD      ACCESS:     204899  HIT:          0  MISS:     204899  HIT %:          0  MISS %:        100   MPKI: 4.09798
L2C DATA LOAD MPKI: 4.09792
L2C INSTRUCTION LOAD MPKI: 6e-05
L2C PREFETCH  ACCESS:     558552  HIT:       1149  MISS:     557403  HIT %:    0.20571  MISS %:    99.7943   MPKI: 11.1481
AGUS PREFETCH L1 MISS: 0
L2C DATA PREFETCH MPKI: 11.1481
L2C INSTRUCTION PREFETCH MPKI: 0
L2C WRITEBACK ACCESS:     301625  HIT:     301619  MISS:          6  HIT %:     99.998  MISS %: 0.00198923   MPKI: 0.00012
L2C LOAD TRANSLATION ACCESS:      54461  HIT:      47586  MISS:       6875  HIT %:    87.3763  MISS %:    12.6237   MPKI: 0.1375
L2C TRANSLATION FROM L1D PREFETCHER ACCESS:       1135  HIT:       1025  MISS:        110  HIT %:    90.3084  MISS %:    9.69163   MPKI: 0.0022
L2C PREFETCH  REQUESTED:          0  ISSUED:          0  USEFUL:        106  USELESS:     556875
L2C USEFUL LOAD PREFETCHES:        106 PREFETCH ISSUED TO LOWER LEVEL:     557407  ACCURACY: 0.0190166
L2C TIMELY PREFETCHES:        106 LATE PREFETCHES: 0 DROPPED PREFETCHES: 0
L2C PREFETCHES SAME FILL-ORIGIN LEVEL: 0 DIFFERENT FILL-ORIGIN LEVEL: 0
L2C AVERAGE MISS LATENCY: 199.382 cycles
L2C RQ	ACCESS:     260495	FORWARD:          0	MERGED:          0	TO_CACHE:     260495
L2C WQ	ACCESS:     301625	FORWARD:          0	MERGED:          0	TO_CACHE:     301625
L2C PQ	ACCESS:     558557	FORWARD:          0	MERGED:          0	TO_CACHE:     558557

L2C Instructions Evicting Data 3
L2C Translations Evicting Data 6814
L2C Data Evicting Data 755242
L2C Instructions Evicting Instructions 0
L2C Translations Evicting Instructions 0
L2C Data Evicting Instructions 3
L2C Instructions Evicting Translations 0
L2C Translations Evicting Translations 171
L2C Data Evicting Translations 7054
L2C Dense regions hint from L2: 0
PSCL5 TOTAL     ACCESS:      55488  HIT:      55488  MISS:          0  HIT %:        100  MISS %:          0   MPKI: 0
PSCL5 LOAD TRANSLATION ACCESS:      54357  HIT:      54357  MISS:          0  HIT %:        100  MISS %:          0   MPKI: 0
PSCL5 TRANSLATION FROM L1D PREFETCHER ACCESS:       1131  HIT:       1131  MISS:          0  HIT %:        100  MISS %:          0   MPKI: 0
PSCL5 PREFETCH  REQUESTED:          0  ISSUED:          0  USEFUL:          0  USELESS:          0
PSCL5 USEFUL LOAD PREFETCHES:          0 PREFETCH ISSUED TO LOWER LEVEL:          0  ACCURACY: -nan
PSCL5 TIMELY PREFETCHES:          0 LATE PREFETCHES: 0 DROPPED PREFETCHES: 0
PSCL5 PREFETCHES SAME FILL-ORIGIN LEVEL: 0 DIFFERENT FILL-ORIGIN LEVEL: 0

PSCL4 TOTAL     ACCESS:      55488  HIT:      55488  MISS:          0  HIT %:        100  MISS %:          0   MPKI: 0
PSCL4 LOAD TRANSLATION ACCESS:      54357  HIT:      54357  MISS:          0  HIT %:        100  MISS %:          0   MPKI: 0
PSCL4 TRANSLATION FROM L1D PREFETCHER ACCESS:       1131  HIT:       1131  MISS:          0  HIT %:        100  MISS %:          0   MPKI: 0
PSCL4 PREFETCH  REQUESTED:          0  ISSUED:          0  USEFUL:          0  USELESS:          0
PSCL4 USEFUL LOAD PREFETCHES:          0 PREFETCH ISSUED TO LOWER LEVEL:          0  ACCURACY: -nan
PSCL4 TIMELY PREFETCHES:          0 LATE PREFETCHES: 0 DROPPED PREFETCHES: 0
PSCL4 PREFETCHES SAME FILL-ORIGIN LEVEL: 0 DIFFERENT FILL-ORIGIN LEVEL: 0

PSCL3 TOTAL     ACCESS:      55488  HIT:      55488  MISS:          0  HIT %:        100  MISS %:          0   MPKI: 0
PSCL3 LOAD TRANSLATION ACCESS:      54357  HIT:      54357  MISS:          0  HIT %:        100  MISS %:          0   MPKI: 0
PSCL3 TRANSLATION FROM L1D PREFETCHER ACCESS:       1131  HIT:       1131  MISS:          0  HIT %:        100  MISS %:          0   MPKI: 0
PSCL3 PREFETCH  REQUESTED:          0  ISSUED:          0  USEFUL:          0  USELESS:          0
PSCL3 USEFUL LOAD PREFETCHES:          0 PREFETCH ISSUED TO LOWER LEVEL:          0  ACCURACY: -nan
PSCL3 TIMELY PREFETCHES:          0 LATE PREFETCHES: 0 DROPPED PREFETCHES: 0
PSCL3 PREFETCHES SAME FILL-ORIGIN LEVEL: 0 DIFFERENT FILL-ORIGIN LEVEL: 0

PSCL2 TOTAL     ACCESS:      55488  HIT:      55375  MISS:        113  HIT %:    99.7964  MISS %:   0.203648   MPKI: 0.00226
PSCL2 LOAD TRANSLATION ACCESS:      54361  HIT:      54248  MISS:        113  HIT %:    99.7921  MISS %:    0.20787   MPKI: 0.00226
PSCL2 TRANSLATION FROM L1D PREFETCHER ACCESS:       1127  HIT:       1127  MISS:          0  HIT %:        100  MISS %:          0   MPKI: 0
PSCL2 PREFETCH  REQUESTED:          0  ISSUED:          0  USEFUL:          0  USELESS:          0
PSCL2 USEFUL LOAD PREFETCHES:          0 PREFETCH ISSUED TO LOWER LEVEL:          0  ACCURACY: -nan
PSCL2 TIMELY PREFETCHES:          0 LATE PREFETCHES: 0 DROPPED PREFETCHES: 0
PSCL2 PREFETCHES SAME FILL-ORIGIN LEVEL: 0 DIFFERENT FILL-ORIGIN LEVEL: 0

LLC TOTAL     ACCESS:    1067647  HIT:     298380  MISS:     769267  HIT %:    27.9474  MISS %:    72.0526   MPKI: 15.3853
LLC LOAD      ACCESS:     204899  HIT:          0  MISS:     204899  HIT %:          0  MISS %:        100   MPKI: 4.09798
LLC PREFETCH  ACCESS:     557403  HIT:         14  MISS:     557389  HIT %: 0.00251165  MISS %:    99.9975   MPKI: 11.1478
AGUS PREFETCH L1 MISS: 0
LLC WRITEBACK ACCESS:     298360  HIT:     298354  MISS:          6  HIT %:     99.998  MISS %: 0.00201099   MPKI: 0.00012
LLC LOAD TRANSLATION ACCESS:       6875  HIT:         10  MISS:       6865  HIT %:   0.145455  MISS %:    99.8545   MPKI: 0.1373
LLC TRANSLATION FROM L1D PREFETCHER ACCESS:        110  HIT:          2  MISS:        108  HIT %:    1.81818  MISS %:    98.1818   MPKI: 0.00216
LLC PREFETCH  REQUESTED:          0  ISSUED:          0  USEFUL:          2  USELESS:     555342
LLC USEFUL LOAD PREFETCHES:          2 PREFETCH ISSUED TO LOWER LEVEL:     557393  ACCURACY: 0.000358813
LLC TIMELY PREFETCHES:          2 LATE PREFETCHES: 0 DROPPED PREFETCHES: 0
LLC PREFETCHES SAME FILL-ORIGIN LEVEL: 0 DIFFERENT FILL-ORIGIN LEVEL: 0
LLC AVERAGE MISS LATENCY: 169.252 cycles
LLC RQ	ACCESS:     211884	FORWARD:          0	MERGED:          0	TO_CACHE:     211884
LLC WQ	ACCESS:     298360	FORWARD:          0	MERGED:          0	TO_CACHE:     298360
LLC PQ	ACCESS:     557407	FORWARD:          0	MERGED:          0	TO_CACHE:     557407

LLC Dense regions hint to LLC: 0

RAW hits: 40526
Loads Generated: 17381038
Loads sent to L1D: 17340520
Stores Generated: 7826902
Stores sent to L1D: 7826908
Major fault: 0 Minor fault: 89779
Allocated PAGES: 89779

stream: 
stream:times selected: 3953198
stream:pref_reqs: 3882531
stream:pref_reqs_filtered_out: 3199747
stream:pref_filled: 343084
stream:pref_useful: 8455
stream:pref_late: 10586
stream:misses: 80763
stream:misses_by_poll: 0

CS: 
CS:times selected: 1575018
CS:pref_reqs: 4650546
CS:pref_reqs_filtered_out: 3967390
CS:pref_filled: 513919
CS:pref_useful: 513884
CS:pref_late: 48793
CS:misses: 33116
CS:misses_by_poll: 6751

CPLX: 
CPLX:times selected: 2085458
CPLX:pref_reqs: 5092451
CPLX:pref_reqs_filtered_out: 4292534
CPLX:pref_filled: 523336
CPLX:pref_useful: 449541
CPLX:pref_late: 4695
CPLX:misses: 22182
CPLX:misses_by_poll: 796

ISB: 
ISB:total access:11899698
ISB:times selected:7210160
ISB:canary counter:0
ISB:pref_reqs: 5412697
ISB:pref_reqs_filtered_out: 5246306
ISB:pref_filled: 38556
ISB:pref_useful: 38552
ISB:pref_late: 5
ISB:misses: 384939
ISB:misses_by_poll: 85
ISB:Stream end: 7169920
ISB:No Prediction: 4689538 39.4089
ISB:No translation: 2690437704
ISB:Predictions: 165909 1.39423

NL_L1: 
NL:times selected: 1136
NL:pref_reqs: 1136
NL:pref_reqs_filtered_out: 764
NL:pref_filled: 372
NL:pref_useful: 131
NL:pref_late: 0
NL:misses: 118
NL:misses_by_poll: 0

Coverage: 60.465
total selections: 14824970
total_filled: 504948
total_useful: 395351
total_late: 66480
total_polluted: 7632
total_misses_after_warmup: 313102
conflicts: 587154

test: 0
ISB Prefetcher final stats
Prefetcher final stats
Training Unit Size: 132
Addr table size: 1465112 1470138
Triggers: 11899698
Structural address exists: 7210160 60.5911
No Prediction: 4689538 39.4089
Prefetches issued: 165909 1.39423
Stream end: 7169920
No translation: 2690437704
%Stream divergence: 636810 5.35148
Stream divergence -- new stream: 0
A: 0
B: 0
C: 3953199
D: 3953199
E: 3953199
F: 0
G: 0

DRAM Statistics
 CHANNEL 0
 RQ ROW_BUFFER_HIT:     249046  ROW_BUFFER_MISS:     520215
 DBUS_CONGESTED:         35
 WQ ROW_BUFFER_HIT:     100613  ROW_BUFFER_MISS:     187287  FULL:          0

 AVG_CONGESTED_CYCLE: 4
 All warmup complete: 2
Channel 0 Bank busy for read cycles: 0
Channel 0 Bank busy for write cycles: 0
Channel 0
Rank 0
0banks busy for read cycles: 21869710
0banks busy for write cycles: 113295
1banks busy for read cycles: 17045566
1banks busy for write cycles: 11411415
2banks busy for read cycles: 11820018
2banks busy for write cycles: 9776011
3banks busy for read cycles: 7529796
3banks busy for write cycles: 16655
4banks busy for read cycles: 5651570
4banks busy for write cycles: 26168
5banks busy for read cycles: 692151
5banks busy for write cycles: 28662
6banks busy for read cycles: 290519
6banks busy for write cycles: 33321
7banks busy for read cycles: 8034
7banks busy for write cycles: 133233
8banks busy for read cycles: 0
8banks busy for write cycles: 1478805

CPU 0 Branch Prediction Accuracy: 78.2145% MPKI: 18.7089 Average ROB Occupancy at Mispredict: 40.476
Branch types
NOT_BRANCH: 45705861 91.4117%
BRANCH_DIRECT_JUMP: 80000 0.16%
BRANCH_INDIRECT: 0 0%
BRANCH_CONDITIONAL: 3142280 6.28456%
BRANCH_DIRECT_CALL: 535805 1.07161%
BRANCH_INDIRECT_CALL: 0 0%
BRANCH_RETURN: 535806 1.07161%
BRANCH_OTHER: 0 0%

DRAM PAGES: 1048576
Allocated PAGES: 89779
