
*** ChampSim Multicore Out-of-Order Simulator ***

Warmup Instructions: 50000000
Simulation Instructions: 50000000
Number of CPUs: 1
LLC sets: 2048
LLC ways: 16
Off-chip DRAM Size: 4096 MB Channels: 1 Width: 64-bit Data Rate: 6400 MT/s
CPU 0 runs ./traces/SPEC-CPU2017/436.cactusADM-1804B.champsimtrace.xz
.xz
CPU 0 Bimodal branch predictor
BTB has LRU replacement policy
ITLB has LRU replacement policy
DTLB has LRU replacement policy
STLB has LRU replacement policy
L1I has LRU replacement policy
L1D has LRU replacement policy
L2C has LRU replacement policy
LLC has LRU replacement policy
Heartbeat CPU 0 instructions: 10000003 cycles: 4112048 heartbeat IPC: 2.43188 cumulative IPC: 2.43188 (Simulation time: 0 hr 11 min 53 sec) 
Heartbeat CPU 0 instructions: 20000000 cycles: 8305838 heartbeat IPC: 2.38448 cumulative IPC: 2.40794 (Simulation time: 0 hr 23 min 56 sec) 
Heartbeat CPU 0 instructions: 30000003 cycles: 12420529 heartbeat IPC: 2.43032 cumulative IPC: 2.41536 (Simulation time: 0 hr 36 min 25 sec) 
Heartbeat CPU 0 instructions: 40000000 cycles: 16534712 heartbeat IPC: 2.43062 cumulative IPC: 2.41915 (Simulation time: 0 hr 49 min 4 sec) 
Heartbeat CPU 0 instructions: 50000002 cycles: 20717956 heartbeat IPC: 2.39049 cumulative IPC: 2.41337 (Simulation time: 0 hr 58 min 54 sec) 

Warmup complete CPU 0 instructions: 50000002 cycles: 20717956 (Simulation time: 0 hr 58 min 54 sec) 

Heartbeat CPU 0 instructions: 60000000 cycles: 32351991 heartbeat IPC: 0.859547 cumulative IPC: 0.859547 (Simulation time: 1 hr 0 min 38 sec) 
Heartbeat CPU 0 instructions: 70000003 cycles: 45723556 heartbeat IPC: 0.747856 cumulative IPC: 0.799821 (Simulation time: 1 hr 2 min 53 sec) 
Heartbeat CPU 0 instructions: 80000000 cycles: 57396898 heartbeat IPC: 0.856652 cumulative IPC: 0.817908 (Simulation time: 1 hr 4 min 45 sec) 
Heartbeat CPU 0 instructions: 90000000 cycles: 70770586 heartbeat IPC: 0.747737 cumulative IPC: 0.799159 (Simulation time: 1 hr 6 min 55 sec) 
Heartbeat CPU 0 instructions: 100000000 cycles: 82397730 heartbeat IPC: 0.860056 cumulative IPC: 0.810638 (Simulation time: 1 hr 8 min 23 sec) 
Finished CPU 0 instructions: 50000000 cycles: 61679791 cumulative IPC: 0.810638 (Simulation time: 1 hr 8 min 23 sec) 

ChampSim completed all CPUs

Region of Interest Statistics

CPU 0 cumulative IPC: 0.810638 instructions: 50000000 cycles: 61679791
ITLB TOTAL     ACCESS:    8078303  HIT:    8078303  MISS:          0  HIT %:        100  MISS %:          0   MPKI: 0
ITLB LOAD TRANSLATION ACCESS:    8078303  HIT:    8078303  MISS:          0  HIT %:        100  MISS %:          0   MPKI: 0
ITLB PREFETCH  REQUESTED:          0  ISSUED:          0  USEFUL:          0  USELESS:          0
ITLB USEFUL LOAD PREFETCHES:          0 PREFETCH ISSUED TO LOWER LEVEL:          0  ACCURACY: -nan
ITLB TIMELY PREFETCHES:          0 LATE PREFETCHES: 0 DROPPED PREFETCHES: 0
ITLB PREFETCHES SAME FILL-ORIGIN LEVEL: 0 DIFFERENT FILL-ORIGIN LEVEL: 0
ITLB AVERAGE MISS LATENCY: -nan cycles
ITLB RQ	ACCESS:    9701664	FORWARD:          0	MERGED:    1623362	TO_CACHE:    8078302

DTLB TOTAL     ACCESS:   14574365  HIT:   13285666  MISS:    1288699  HIT %:    91.1578  MISS %:    8.84223   MPKI: 25.774
DTLB LOAD TRANSLATION ACCESS:   14574365  HIT:   13285666  MISS:    1288699  HIT %:    91.1578  MISS %:    8.84223   MPKI: 25.774
DTLB PREFETCH  REQUESTED:          0  ISSUED:          0  USEFUL:          0  USELESS:          0
DTLB USEFUL LOAD PREFETCHES:          0 PREFETCH ISSUED TO LOWER LEVEL:          0  ACCURACY: -nan
DTLB TIMELY PREFETCHES:          0 LATE PREFETCHES: 0 DROPPED PREFETCHES: 0
DTLB PREFETCHES SAME FILL-ORIGIN LEVEL: 0 DIFFERENT FILL-ORIGIN LEVEL: 0
DTLB AVERAGE MISS LATENCY: 26.6105 cycles
DTLB RQ	ACCESS:   22949829	FORWARD:          0	MERGED:    8355673	TO_CACHE:   14594156

STLB TOTAL     ACCESS:    2912258  HIT:    2439881  MISS:     472377  HIT %:    83.7797  MISS %:    16.2203   MPKI: 9.44754
STLB LOAD TRANSLATION ACCESS:    1288699  HIT:     818108  MISS:     470591  HIT %:    63.4832  MISS %:    36.5168   MPKI: 9.41182
STLB TRANSLATION FROM L1D PREFETCHER ACCESS:    1623559  HIT:    1621773  MISS:       1786  HIT %:      99.89  MISS %:   0.110005   MPKI: 0.03572
STLB PREFETCH  REQUESTED:          0  ISSUED:          0  USEFUL:        950  USELESS:        836
STLB USEFUL LOAD PREFETCHES:        950 PREFETCH ISSUED TO LOWER LEVEL:          0  ACCURACY: inf
STLB TIMELY PREFETCHES:        950 LATE PREFETCHES: 0 DROPPED PREFETCHES: 0
STLB PREFETCHES SAME FILL-ORIGIN LEVEL: 0 DIFFERENT FILL-ORIGIN LEVEL: 0
STLB AVERAGE MISS LATENCY: 47.3007 cycles
STLB RQ	ACCESS:    9840786	FORWARD:          0	MERGED:    6928528	TO_CACHE:    2912258

STLB Hit, L1D data hit: 0
STLB Hit, L2C data hit: 0
STLB Hit, LLC data hit: 0
STLB Hit, LLC data miss: 0
STLB STLB hints to L2: 0
L1D TOTAL     ACCESS:   31449291  HIT:   31026898  MISS:     422393  HIT %:    98.6569  MISS %:    1.34309   MPKI: 8.44786
L1D LOAD      ACCESS:   15089558  HIT:   15035345  MISS:      54213  HIT %:    99.6407  MISS %:   0.359275   MPKI: 1.08426
L1D RFO       ACCESS:    7809445  HIT:    7738763  MISS:      70682  HIT %:    99.0949  MISS %:   0.905084   MPKI: 1.41364
L1D PREFETCH  ACCESS:    8550288  HIT:    8252790  MISS:     297498  HIT %:    96.5206  MISS %:    3.47939   MPKI: 5.94996
AGUS PREFETCH L1 MISS: 0
L1D PREFETCH  REQUESTED:   29474530  ISSUED:   17104535  USEFUL:     234070  USELESS:      63426
L1D USEFUL LOAD PREFETCHES:     234070 PREFETCH ISSUED TO LOWER LEVEL:     297502  ACCURACY: 78.6785
L1D TIMELY PREFETCHES:     234070 LATE PREFETCHES: 4 DROPPED PREFETCHES: 0
L1D PREFETCHES SAME FILL-ORIGIN LEVEL: 297502 DIFFERENT FILL-ORIGIN LEVEL: 0
L1D AVERAGE MISS LATENCY: 141.274 cycles
L1D RQ	ACCESS:   25728601	FORWARD:          0	MERGED:   10505878	TO_CACHE:   15091343
L1D WQ	ACCESS:    8407615	FORWARD:     131380	MERGED:     549129	TO_CACHE:    7858486
L1D PQ	ACCESS:    8552448	FORWARD:          0	MERGED:        361	TO_CACHE:    8552087

L1D UNIQUE REGIONS ACCESSED: 0
L1D REGIONS CONFLICTS: 0
L1D Cross Page Prefetch Requests: 878461
L1D Same Page Prefetch Requests: 14457580
L1D ROI Sum of L1D PQ occupancy: 125684420
L1D PREFETCHES PUSHED FROM L2C: 0
L1I TOTAL     ACCESS:    9701666  HIT:    9701666  MISS:          0  HIT %:        100  MISS %:          0   MPKI: 0
L1I LOAD      ACCESS:    9701666  HIT:    9701666  MISS:          0  HIT %:        100  MISS %:          0   MPKI: 0
L1I PREFETCH  REQUESTED:          0  ISSUED:          0  USEFUL:          0  USELESS:          0
L1I USEFUL LOAD PREFETCHES:          0 PREFETCH ISSUED TO LOWER LEVEL:          0  ACCURACY: -nan
L1I TIMELY PREFETCHES:          0 LATE PREFETCHES: 0 DROPPED PREFETCHES: 0
L1I PREFETCHES SAME FILL-ORIGIN LEVEL: 0 DIFFERENT FILL-ORIGIN LEVEL: 0
L1I AVERAGE MISS LATENCY: -nan cycles
L1I RQ	ACCESS:   16673296	FORWARD:          0	MERGED:    6971632	TO_CACHE:    9701664

BTB TOTAL     ACCESS:      60897  HIT:      60890  MISS:          7  HIT %:    99.9885  MISS %:  0.0114948   MPKI: 0.00014
BTB BRANCH_DIRECT_JUMP	ACCESS:        502  HIT:        500  MISS:          2
BTB BRANCH_INDIRECT	ACCESS:          0  HIT:          0  MISS:          0
BTB BRANCH_CONDITIONAL	ACCESS:      60395  HIT:      60390  MISS:          5
BTB BRANCH_DIRECT_CALL	ACCESS:          0  HIT:          0  MISS:          0
BTB BRANCH_INDIRECT_CALL	ACCESS:          0  HIT:          0  MISS:          0
BTB BRANCH_RETURN	ACCESS:          0  HIT:          0  MISS:          0
BTB BRANCH_OTHER ACCESS:          0  HIT:          0  MISS:          0

L2C TOTAL     ACCESS:    1398509  HIT:    1148100  MISS:     250409  HIT %:    82.0946  MISS %:    17.9054   MPKI: 5.00818
L2C LOAD      ACCESS:      54209  HIT:      19223  MISS:      34986  HIT %:    35.4609  MISS %:    64.5391   MPKI: 0.69972
L2C DATA LOAD MPKI: 0.69972
L2C INSTRUCTION LOAD MPKI: 0
L2C RFO       ACCESS:      70682  HIT:         66  MISS:      70616  HIT %:   0.093376  MISS %:    99.9066   MPKI: 1.41232
L2C PREFETCH  ACCESS:     297502  HIT:     153277  MISS:     144225  HIT %:    51.5213  MISS %:    48.4787   MPKI: 2.8845
AGUS PREFETCH L1 MISS: 0
L2C DATA PREFETCH MPKI: 2.8845
L2C INSTRUCTION PREFETCH MPKI: 0
L2C WRITEBACK ACCESS:      73659  HIT:      73565  MISS:         94  HIT %:    99.8724  MISS %:   0.127615   MPKI: 0.00188
L2C LOAD TRANSLATION ACCESS:     900009  HIT:     899636  MISS:        373  HIT %:    99.9586  MISS %:   0.041444   MPKI: 0.00746
L2C TRANSLATION FROM L1D PREFETCHER ACCESS:       2448  HIT:       2333  MISS:        115  HIT %:    95.3023  MISS %:    4.69771   MPKI: 0.0023
L2C PREFETCH  REQUESTED:          0  ISSUED:          0  USEFUL:      12806  USELESS:     132265
L2C USEFUL LOAD PREFETCHES:      12806 PREFETCH ISSUED TO LOWER LEVEL:     144225  ACCURACY: 8.87918
L2C TIMELY PREFETCHES:      12806 LATE PREFETCHES: 0 DROPPED PREFETCHES: 0
L2C PREFETCHES SAME FILL-ORIGIN LEVEL: 0 DIFFERENT FILL-ORIGIN LEVEL: 0
L2C AVERAGE MISS LATENCY: 212.578 cycles
L2C RQ	ACCESS:    1027349	FORWARD:          0	MERGED:          0	TO_CACHE:    1027349
L2C WQ	ACCESS:      73659	FORWARD:          0	MERGED:          0	TO_CACHE:      73659
L2C PQ	ACCESS:     297502	FORWARD:          0	MERGED:          0	TO_CACHE:     297502

L2C Instructions Evicting Data 0
L2C Translations Evicting Data 488
L2C Data Evicting Data 249353
L2C Instructions Evicting Instructions 0
L2C Translations Evicting Instructions 0
L2C Data Evicting Instructions 0
L2C Instructions Evicting Translations 0
L2C Translations Evicting Translations 0
L2C Data Evicting Translations 474
L2C Dense regions hint from L2: 0
PSCL5 TOTAL     ACCESS:     472378  HIT:     472378  MISS:          0  HIT %:        100  MISS %:          0   MPKI: 0
PSCL5 LOAD TRANSLATION ACCESS:     470592  HIT:     470592  MISS:          0  HIT %:        100  MISS %:          0   MPKI: 0
PSCL5 TRANSLATION FROM L1D PREFETCHER ACCESS:       1786  HIT:       1786  MISS:          0  HIT %:        100  MISS %:          0   MPKI: 0
PSCL5 PREFETCH  REQUESTED:          0  ISSUED:          0  USEFUL:          0  USELESS:          0
PSCL5 USEFUL LOAD PREFETCHES:          0 PREFETCH ISSUED TO LOWER LEVEL:          0  ACCURACY: -nan
PSCL5 TIMELY PREFETCHES:          0 LATE PREFETCHES: 0 DROPPED PREFETCHES: 0
PSCL5 PREFETCHES SAME FILL-ORIGIN LEVEL: 0 DIFFERENT FILL-ORIGIN LEVEL: 0

PSCL4 TOTAL     ACCESS:     472378  HIT:     472378  MISS:          0  HIT %:        100  MISS %:          0   MPKI: 0
PSCL4 LOAD TRANSLATION ACCESS:     470592  HIT:     470592  MISS:          0  HIT %:        100  MISS %:          0   MPKI: 0
PSCL4 TRANSLATION FROM L1D PREFETCHER ACCESS:       1786  HIT:       1786  MISS:          0  HIT %:        100  MISS %:          0   MPKI: 0
PSCL4 PREFETCH  REQUESTED:          0  ISSUED:          0  USEFUL:          0  USELESS:          0
PSCL4 USEFUL LOAD PREFETCHES:          0 PREFETCH ISSUED TO LOWER LEVEL:          0  ACCURACY: -nan
PSCL4 TIMELY PREFETCHES:          0 LATE PREFETCHES: 0 DROPPED PREFETCHES: 0
PSCL4 PREFETCHES SAME FILL-ORIGIN LEVEL: 0 DIFFERENT FILL-ORIGIN LEVEL: 0

PSCL3 TOTAL     ACCESS:     472378  HIT:     472378  MISS:          0  HIT %:        100  MISS %:          0   MPKI: 0
PSCL3 LOAD TRANSLATION ACCESS:     470592  HIT:     470592  MISS:          0  HIT %:        100  MISS %:          0   MPKI: 0
PSCL3 TRANSLATION FROM L1D PREFETCHER ACCESS:       1786  HIT:       1786  MISS:          0  HIT %:        100  MISS %:          0   MPKI: 0
PSCL3 PREFETCH  REQUESTED:          0  ISSUED:          0  USEFUL:          0  USELESS:          0
PSCL3 USEFUL LOAD PREFETCHES:          0 PREFETCH ISSUED TO LOWER LEVEL:          0  ACCURACY: -nan
PSCL3 TIMELY PREFETCHES:          0 LATE PREFETCHES: 0 DROPPED PREFETCHES: 0
PSCL3 PREFETCHES SAME FILL-ORIGIN LEVEL: 0 DIFFERENT FILL-ORIGIN LEVEL: 0

PSCL2 TOTAL     ACCESS:     472377  HIT:      42298  MISS:     430079  HIT %:    8.95429  MISS %:    91.0457   MPKI: 8.60158
PSCL2 LOAD TRANSLATION ACCESS:     471253  HIT:      41174  MISS:     430079  HIT %:    8.73713  MISS %:    91.2629   MPKI: 8.60158
PSCL2 TRANSLATION FROM L1D PREFETCHER ACCESS:       1124  HIT:       1124  MISS:          0  HIT %:        100  MISS %:          0   MPKI: 0
PSCL2 PREFETCH  REQUESTED:          0  ISSUED:          0  USEFUL:          0  USELESS:          0
PSCL2 USEFUL LOAD PREFETCHES:          0 PREFETCH ISSUED TO LOWER LEVEL:          0  ACCURACY: -nan
PSCL2 TIMELY PREFETCHES:          0 LATE PREFETCHES: 0 DROPPED PREFETCHES: 0
PSCL2 PREFETCHES SAME FILL-ORIGIN LEVEL: 0 DIFFERENT FILL-ORIGIN LEVEL: 0

LLC TOTAL     ACCESS:     321055  HIT:      70667  MISS:     250388  HIT %:    22.0109  MISS %:    77.9891   MPKI: 5.00776
LLC LOAD      ACCESS:      34986  HIT:         31  MISS:      34955  HIT %:  0.0886069  MISS %:    99.9114   MPKI: 0.6991
LLC RFO       ACCESS:      70616  HIT:          0  MISS:      70616  HIT %:          0  MISS %:        100   MPKI: 1.41232
LLC PREFETCH  ACCESS:     144225  HIT:          0  MISS:     144225  HIT %:          0  MISS %:        100   MPKI: 2.8845
AGUS PREFETCH L1 MISS: 0
LLC WRITEBACK ACCESS:      70740  HIT:      70636  MISS:        104  HIT %:     99.853  MISS %:   0.147017   MPKI: 0.00208
LLC LOAD TRANSLATION ACCESS:        373  HIT:          0  MISS:        373  HIT %:          0  MISS %:        100   MPKI: 0.00746
LLC TRANSLATION FROM L1D PREFETCHER ACCESS:        115  HIT:          0  MISS:        115  HIT %:          0  MISS %:        100   MPKI: 0.0023
LLC PREFETCH  REQUESTED:          0  ISSUED:          0  USEFUL:          0  USELESS:     143324
LLC USEFUL LOAD PREFETCHES:          0 PREFETCH ISSUED TO LOWER LEVEL:     144225  ACCURACY: 0
LLC TIMELY PREFETCHES:          0 LATE PREFETCHES: 0 DROPPED PREFETCHES: 0
LLC PREFETCHES SAME FILL-ORIGIN LEVEL: 0 DIFFERENT FILL-ORIGIN LEVEL: 0
LLC AVERAGE MISS LATENCY: 182.155 cycles
LLC RQ	ACCESS:     106090	FORWARD:          0	MERGED:          0	TO_CACHE:     106090
LLC WQ	ACCESS:      70740	FORWARD:          0	MERGED:          0	TO_CACHE:      70740
LLC PQ	ACCESS:     144225	FORWARD:          0	MERGED:          0	TO_CACHE:     144225

LLC Dense regions hint to LLC: 0

RAW hits: 3302067
Loads Generated: 29030684
Loads sent to L1D: 25728601
Stores Generated: 8407608
Stores sent to L1D: 8407615
Major fault: 0 Minor fault: 4630
Allocated PAGES: 4630

stream: 
stream:times selected: 75367
stream:pref_reqs: 427175
stream:pref_reqs_filtered_out: 51339
stream:pref_filled: 76281
stream:pref_useful: 76076
stream:pref_late: 0
stream:misses: 0
stream:misses_by_poll: 0

CS: 
CS:times selected: 66071
CS:pref_reqs: 195236
CS:pref_reqs_filtered_out: 191015
CS:pref_filled: 211
CS:pref_useful: 211
CS:pref_late: 0
CS:misses: 0
CS:misses_by_poll: 0

CPLX: 
CPLX:times selected: 9261
CPLX:pref_reqs: 26746
CPLX:pref_reqs_filtered_out: 26565
CPLX:pref_filled: 47
CPLX:pref_useful: 47
CPLX:pref_late: 0
CPLX:misses: 0
CPLX:misses_by_poll: 0

ISB: 
ISB:total access:31736188
ISB:times selected:7088688
ISB:canary counter:0
ISB:pref_reqs: 40713799
ISB:pref_reqs_filtered_out: 5205322
ISB:pref_filled: 418699
ISB:pref_useful: 337525
ISB:pref_late: 4
ISB:misses: 6410
ISB:misses_by_poll: 1
ISB:Stream end: 2097314
ISB:No Prediction: 24647500 77.6637
ISB:No translation: 1207363877
ISB:Predictions: 15094268 47.5617

NL_L1: 
NL:times selected: 6
NL:pref_reqs: 6
NL:pref_reqs_filtered_out: 0
NL:pref_filled: 6
NL:pref_useful: 6
NL:pref_late: 0
NL:misses: 0
NL:misses_by_poll: 0

Coverage: 81.1945
total selections: 7239393
total_filled: 297498
total_useful: 234070
total_late: 4
total_polluted: 1
total_misses_after_warmup: 55991
conflicts: 16287708

test: 0
ISB Prefetcher final stats
Prefetcher final stats
Training Unit Size: 1455
Addr table size: 198399 198429
Triggers: 31736188
Structural address exists: 7088688 22.3363
No Prediction: 24647500 77.6637
Prefetches issued: 15094268 47.5617
Stream end: 2097314
No translation: 1207363877
%Stream divergence: 824 0.00259641
Stream divergence -- new stream: 0
A: 0
B: 0
C: 75374
D: 75374
E: 75374
F: 0
G: 0

DRAM Statistics
 CHANNEL 0
 RQ ROW_BUFFER_HIT:      55405  ROW_BUFFER_MISS:     194879
 DBUS_CONGESTED:        165
 WQ ROW_BUFFER_HIT:      11753  ROW_BUFFER_MISS:      60517  FULL:          0

 AVG_CONGESTED_CYCLE: 5
 All warmup complete: 2
Channel 0 Bank busy for read cycles: 0
Channel 0 Bank busy for write cycles: 0
Channel 0
Rank 0
0banks busy for read cycles: 39073429
0banks busy for write cycles: 22371
1banks busy for read cycles: 8827765
1banks busy for write cycles: 2619967
2banks busy for read cycles: 4453404
2banks busy for write cycles: 1242444
3banks busy for read cycles: 1701640
3banks busy for write cycles: 723918
4banks busy for read cycles: 1130728
4banks busy for write cycles: 369252
5banks busy for read cycles: 386793
5banks busy for write cycles: 169013
6banks busy for read cycles: 187912
6banks busy for write cycles: 90963
7banks busy for read cycles: 161394
7banks busy for write cycles: 94945
8banks busy for read cycles: 65112
8banks busy for write cycles: 358742

CPU 0 Branch Prediction Accuracy: 99.1743% MPKI: 0.01016 Average ROB Occupancy at Mispredict: 246.213
Branch types
NOT_BRANCH: 49938478 99.877%
BRANCH_DIRECT_JUMP: 502 0.001004%
BRANCH_INDIRECT: 0 0%
BRANCH_CONDITIONAL: 61022 0.122044%
BRANCH_DIRECT_CALL: 0 0%
BRANCH_INDIRECT_CALL: 0 0%
BRANCH_RETURN: 0 0%
BRANCH_OTHER: 0 0%

DRAM PAGES: 1048576
Allocated PAGES: 4630
