
*** ChampSim Multicore Out-of-Order Simulator ***

Warmup Instructions: 50000000
Simulation Instructions: 50000000
Number of CPUs: 1
LLC sets: 2048
LLC ways: 16
Off-chip DRAM Size: 4096 MB Channels: 1 Width: 64-bit Data Rate: 6400 MT/s
CPU 0 runs ./traces/SPEC-CPU2017/436.cactusADM-1804B.champsimtrace.xz
.xz
CPU 0 Bimodal branch predictor
BTB has LRU replacement policy
ITLB has LRU replacement policy
DTLB has LRU replacement policy
STLB has LRU replacement policy
L1I has LRU replacement policy
L1D has LRU replacement policy
L2C has LRU replacement policy
LLC has LRU replacement policy
Heartbeat CPU 0 instructions: 10000003 cycles: 4114341 heartbeat IPC: 2.43052 cumulative IPC: 2.43052 (Simulation time: 0 hr 1 min 25 sec) 
Heartbeat CPU 0 instructions: 20000000 cycles: 8309101 heartbeat IPC: 2.38393 cumulative IPC: 2.407 (Simulation time: 0 hr 3 min 0 sec) 
Heartbeat CPU 0 instructions: 30000003 cycles: 12422739 heartbeat IPC: 2.43094 cumulative IPC: 2.41493 (Simulation time: 0 hr 4 min 30 sec) 
Heartbeat CPU 0 instructions: 40000000 cycles: 16535586 heartbeat IPC: 2.43141 cumulative IPC: 2.41903 (Simulation time: 0 hr 5 min 58 sec) 
Heartbeat CPU 0 instructions: 50000002 cycles: 20730536 heartbeat IPC: 2.38382 cumulative IPC: 2.4119 (Simulation time: 0 hr 7 min 23 sec) 

Warmup complete CPU 0 instructions: 50000002 cycles: 20730536 (Simulation time: 0 hr 7 min 23 sec) 

Heartbeat CPU 0 instructions: 60000000 cycles: 33081241 heartbeat IPC: 0.80967 cumulative IPC: 0.80967 (Simulation time: 0 hr 9 min 17 sec) 
Heartbeat CPU 0 instructions: 70000003 cycles: 47209035 heartbeat IPC: 0.707825 cumulative IPC: 0.75533 (Simulation time: 0 hr 10 min 49 sec) 
Heartbeat CPU 0 instructions: 80000000 cycles: 59554690 heartbeat IPC: 0.810001 cumulative IPC: 0.772715 (Simulation time: 0 hr 12 min 34 sec) 
Heartbeat CPU 0 instructions: 90000000 cycles: 73649087 heartbeat IPC: 0.709502 cumulative IPC: 0.755879 (Simulation time: 0 hr 13 min 46 sec) 
Heartbeat CPU 0 instructions: 100000000 cycles: 85918716 heartbeat IPC: 0.815021 cumulative IPC: 0.76701 (Simulation time: 0 hr 14 min 50 sec) 
Finished CPU 0 instructions: 50000000 cycles: 65188197 cumulative IPC: 0.76701 (Simulation time: 0 hr 14 min 50 sec) 

ChampSim completed all CPUs

Region of Interest Statistics

CPU 0 cumulative IPC: 0.76701 instructions: 50000000 cycles: 65188197
ITLB TOTAL     ACCESS:    8131310  HIT:    8131310  MISS:          0  HIT %:        100  MISS %:          0   MPKI: 0
ITLB LOAD TRANSLATION ACCESS:    8131310  HIT:    8131310  MISS:          0  HIT %:        100  MISS %:          0   MPKI: 0
ITLB PREFETCH  REQUESTED:          0  ISSUED:          0  USEFUL:          0  USELESS:          0
ITLB USEFUL LOAD PREFETCHES:          0 PREFETCH ISSUED TO LOWER LEVEL:          0  ACCURACY: -nan
ITLB TIMELY PREFETCHES:          0 LATE PREFETCHES: 0 DROPPED PREFETCHES: 0
ITLB PREFETCHES SAME FILL-ORIGIN LEVEL: 0 DIFFERENT FILL-ORIGIN LEVEL: 0
ITLB AVERAGE MISS LATENCY: -nan cycles
ITLB RQ	ACCESS:    9749142	FORWARD:          0	MERGED:    1617833	TO_CACHE:    8131309

DTLB TOTAL     ACCESS:   14616845  HIT:   13328284  MISS:    1288561  HIT %:    91.1844  MISS %:    8.81559   MPKI: 25.7712
DTLB LOAD TRANSLATION ACCESS:   14616845  HIT:   13328284  MISS:    1288561  HIT %:    91.1844  MISS %:    8.81559   MPKI: 25.7712
DTLB PREFETCH  REQUESTED:          0  ISSUED:          0  USEFUL:          0  USELESS:          0
DTLB USEFUL LOAD PREFETCHES:          0 PREFETCH ISSUED TO LOWER LEVEL:          0  ACCURACY: -nan
DTLB TIMELY PREFETCHES:          0 LATE PREFETCHES: 0 DROPPED PREFETCHES: 0
DTLB PREFETCHES SAME FILL-ORIGIN LEVEL: 0 DIFFERENT FILL-ORIGIN LEVEL: 0
DTLB AVERAGE MISS LATENCY: 26.903 cycles
DTLB RQ	ACCESS:   22977898	FORWARD:          0	MERGED:    8341112	TO_CACHE:   14636786

STLB TOTAL     ACCESS:    1333896  HIT:     851715  MISS:     482181  HIT %:    63.8517  MISS %:    36.1483   MPKI: 9.64362
STLB LOAD TRANSLATION ACCESS:    1288561  HIT:     806778  MISS:     481783  HIT %:    62.6108  MISS %:    37.3892   MPKI: 9.63566
STLB TRANSLATION FROM L1D PREFETCHER ACCESS:      45335  HIT:      44937  MISS:        398  HIT %:    99.1221  MISS %:   0.877909   MPKI: 0.00796
STLB PREFETCH  REQUESTED:          0  ISSUED:          0  USEFUL:        344  USELESS:         54
STLB USEFUL LOAD PREFETCHES:        344 PREFETCH ISSUED TO LOWER LEVEL:          0  ACCURACY: inf
STLB TIMELY PREFETCHES:        344 LATE PREFETCHES: 0 DROPPED PREFETCHES: 0
STLB PREFETCHES SAME FILL-ORIGIN LEVEL: 0 DIFFERENT FILL-ORIGIN LEVEL: 0
STLB AVERAGE MISS LATENCY: 47.0566 cycles
STLB RQ	ACCESS:    1541778	FORWARD:          0	MERGED:     207880	TO_CACHE:    1333898

STLB Hit, L1D data hit: 0
STLB Hit, L2C data hit: 0
STLB Hit, LLC data hit: 0
STLB Hit, LLC data miss: 0
STLB STLB hints to L2: 0
L1D TOTAL     ACCESS:   23183449  HIT:   22778288  MISS:     405161  HIT %:    98.2524  MISS %:    1.74763   MPKI: 8.10322
L1D LOAD      ACCESS:   15117920  HIT:   15000778  MISS:     117142  HIT %:    99.2251  MISS %:   0.774855   MPKI: 2.34284
L1D RFO       ACCESS:    7812327  HIT:    7741689  MISS:      70638  HIT %:    99.0958  MISS %:   0.904186   MPKI: 1.41276
L1D PREFETCH  ACCESS:     253202  HIT:      35821  MISS:     217381  HIT %:    14.1472  MISS %:    85.8528   MPKI: 4.34762
AGUS PREFETCH L1 MISS: 0
L1D PREFETCH  REQUESTED:     571896  ISSUED:     506432  USEFUL:     182176  USELESS:      35163
L1D USEFUL LOAD PREFETCHES:     182176 PREFETCH ISSUED TO LOWER LEVEL:     217384  ACCURACY: 83.8038
L1D TIMELY PREFETCHES:     182176 LATE PREFETCHES: 3 DROPPED PREFETCHES: 0
L1D PREFETCHES SAME FILL-ORIGIN LEVEL: 217384 DIFFERENT FILL-ORIGIN LEVEL: 0
L1D AVERAGE MISS LATENCY: 146.405 cycles
L1D RQ	ACCESS:   25727790	FORWARD:          0	MERGED:   10474495	TO_CACHE:   15119660
L1D WQ	ACCESS:    8407615	FORWARD:     133635	MERGED:     549377	TO_CACHE:    7858238
L1D PQ	ACCESS:     253216	FORWARD:          0	MERGED:          0	TO_CACHE:     253216

L1D UNIQUE REGIONS ACCESSED: 0
L1D REGIONS CONFLICTS: 0
L1D Cross Page Prefetch Requests: 7618
L1D Same Page Prefetch Requests: 473614
L1D ROI Sum of L1D PQ occupancy: 4290516
L1D PREFETCHES PUSHED FROM L2C: 0
L1I TOTAL     ACCESS:    9749144  HIT:    9749144  MISS:          0  HIT %:        100  MISS %:          0   MPKI: 0
L1I LOAD      ACCESS:    9749144  HIT:    9749144  MISS:          0  HIT %:        100  MISS %:          0   MPKI: 0
L1I PREFETCH  REQUESTED:          0  ISSUED:          0  USEFUL:          0  USELESS:          0
L1I USEFUL LOAD PREFETCHES:          0 PREFETCH ISSUED TO LOWER LEVEL:          0  ACCURACY: -nan
L1I TIMELY PREFETCHES:          0 LATE PREFETCHES: 0 DROPPED PREFETCHES: 0
L1I PREFETCHES SAME FILL-ORIGIN LEVEL: 0 DIFFERENT FILL-ORIGIN LEVEL: 0
L1I AVERAGE MISS LATENCY: -nan cycles
L1I RQ	ACCESS:   16703425	FORWARD:          0	MERGED:    6954283	TO_CACHE:    9749142

BTB TOTAL     ACCESS:      60897  HIT:      60890  MISS:          7  HIT %:    99.9885  MISS %:  0.0114948   MPKI: 0.00014
BTB BRANCH_DIRECT_JUMP	ACCESS:        502  HIT:        500  MISS:          2
BTB BRANCH_INDIRECT	ACCESS:          0  HIT:          0  MISS:          0
BTB BRANCH_CONDITIONAL	ACCESS:      60395  HIT:      60390  MISS:          5
BTB BRANCH_DIRECT_CALL	ACCESS:          0  HIT:          0  MISS:          0
BTB BRANCH_INDIRECT_CALL	ACCESS:          0  HIT:          0  MISS:          0
BTB BRANCH_RETURN	ACCESS:          0  HIT:          0  MISS:          0
BTB BRANCH_OTHER ACCESS:          0  HIT:          0  MISS:          0

L2C TOTAL     ACCESS:    1405311  HIT:    1154940  MISS:     250371  HIT %:    82.1839  MISS %:    17.8161   MPKI: 5.00742
L2C LOAD      ACCESS:     117139  HIT:      73361  MISS:      43778  HIT %:    62.6273  MISS %:    37.3727   MPKI: 0.87556
L2C DATA LOAD MPKI: 0.87556
L2C INSTRUCTION LOAD MPKI: 0
L2C RFO       ACCESS:      70638  HIT:         18  MISS:      70620  HIT %:   0.025482  MISS %:    99.9745   MPKI: 1.4124
L2C PREFETCH  ACCESS:     217384  HIT:      81976  MISS:     135408  HIT %:    37.7102  MISS %:    62.2898   MPKI: 2.70816
AGUS PREFETCH L1 MISS: 0
L2C DATA PREFETCH MPKI: 2.70816
L2C INSTRUCTION PREFETCH MPKI: 0
L2C WRITEBACK ACCESS:      73617  HIT:      73542  MISS:         75  HIT %:    99.8981  MISS %:   0.101879   MPKI: 0.0015
L2C LOAD TRANSLATION ACCESS:     925917  HIT:     925489  MISS:        428  HIT %:    99.9538  MISS %:  0.0462244   MPKI: 0.00856
L2C TRANSLATION FROM L1D PREFETCHER ACCESS:        616  HIT:        554  MISS:         62  HIT %:    89.9351  MISS %:    10.0649   MPKI: 0.00124
L2C PREFETCH  REQUESTED:          0  ISSUED:          0  USEFUL:      43927  USELESS:      91345
L2C USEFUL LOAD PREFETCHES:      43927 PREFETCH ISSUED TO LOWER LEVEL:     135408  ACCURACY: 32.4405
L2C TIMELY PREFETCHES:      43927 LATE PREFETCHES: 0 DROPPED PREFETCHES: 0
L2C PREFETCHES SAME FILL-ORIGIN LEVEL: 0 DIFFERENT FILL-ORIGIN LEVEL: 0
L2C AVERAGE MISS LATENCY: 211.203 cycles
L2C RQ	ACCESS:    1114311	FORWARD:          0	MERGED:          0	TO_CACHE:    1114311
L2C WQ	ACCESS:      73617	FORWARD:          0	MERGED:          0	TO_CACHE:      73617
L2C PQ	ACCESS:     217384	FORWARD:          0	MERGED:          0	TO_CACHE:     217384

L2C Instructions Evicting Data 0
L2C Translations Evicting Data 490
L2C Data Evicting Data 249327
L2C Instructions Evicting Instructions 0
L2C Translations Evicting Instructions 0
L2C Data Evicting Instructions 0
L2C Instructions Evicting Translations 0
L2C Translations Evicting Translations 0
L2C Data Evicting Translations 479
L2C Dense regions hint from L2: 0
PSCL5 TOTAL     ACCESS:     482182  HIT:     482182  MISS:          0  HIT %:        100  MISS %:          0   MPKI: 0
PSCL5 LOAD TRANSLATION ACCESS:     481784  HIT:     481784  MISS:          0  HIT %:        100  MISS %:          0   MPKI: 0
PSCL5 TRANSLATION FROM L1D PREFETCHER ACCESS:        398  HIT:        398  MISS:          0  HIT %:        100  MISS %:          0   MPKI: 0
PSCL5 PREFETCH  REQUESTED:          0  ISSUED:          0  USEFUL:          0  USELESS:          0
PSCL5 USEFUL LOAD PREFETCHES:          0 PREFETCH ISSUED TO LOWER LEVEL:          0  ACCURACY: -nan
PSCL5 TIMELY PREFETCHES:          0 LATE PREFETCHES: 0 DROPPED PREFETCHES: 0
PSCL5 PREFETCHES SAME FILL-ORIGIN LEVEL: 0 DIFFERENT FILL-ORIGIN LEVEL: 0

PSCL4 TOTAL     ACCESS:     482182  HIT:     482182  MISS:          0  HIT %:        100  MISS %:          0   MPKI: 0
PSCL4 LOAD TRANSLATION ACCESS:     481784  HIT:     481784  MISS:          0  HIT %:        100  MISS %:          0   MPKI: 0
PSCL4 TRANSLATION FROM L1D PREFETCHER ACCESS:        398  HIT:        398  MISS:          0  HIT %:        100  MISS %:          0   MPKI: 0
PSCL4 PREFETCH  REQUESTED:          0  ISSUED:          0  USEFUL:          0  USELESS:          0
PSCL4 USEFUL LOAD PREFETCHES:          0 PREFETCH ISSUED TO LOWER LEVEL:          0  ACCURACY: -nan
PSCL4 TIMELY PREFETCHES:          0 LATE PREFETCHES: 0 DROPPED PREFETCHES: 0
PSCL4 PREFETCHES SAME FILL-ORIGIN LEVEL: 0 DIFFERENT FILL-ORIGIN LEVEL: 0

PSCL3 TOTAL     ACCESS:     482182  HIT:     482182  MISS:          0  HIT %:        100  MISS %:          0   MPKI: 0
PSCL3 LOAD TRANSLATION ACCESS:     481784  HIT:     481784  MISS:          0  HIT %:        100  MISS %:          0   MPKI: 0
PSCL3 TRANSLATION FROM L1D PREFETCHER ACCESS:        398  HIT:        398  MISS:          0  HIT %:        100  MISS %:          0   MPKI: 0
PSCL3 PREFETCH  REQUESTED:          0  ISSUED:          0  USEFUL:          0  USELESS:          0
PSCL3 USEFUL LOAD PREFETCHES:          0 PREFETCH ISSUED TO LOWER LEVEL:          0  ACCURACY: -nan
PSCL3 TIMELY PREFETCHES:          0 LATE PREFETCHES: 0 DROPPED PREFETCHES: 0
PSCL3 PREFETCHES SAME FILL-ORIGIN LEVEL: 0 DIFFERENT FILL-ORIGIN LEVEL: 0

PSCL2 TOTAL     ACCESS:     482181  HIT:      37830  MISS:     444351  HIT %:     7.8456  MISS %:    92.1544   MPKI: 8.88702
PSCL2 LOAD TRANSLATION ACCESS:     482001  HIT:      37650  MISS:     444351  HIT %:    7.81119  MISS %:    92.1888   MPKI: 8.88702
PSCL2 TRANSLATION FROM L1D PREFETCHER ACCESS:        180  HIT:        180  MISS:          0  HIT %:        100  MISS %:          0   MPKI: 0
PSCL2 PREFETCH  REQUESTED:          0  ISSUED:          0  USEFUL:          0  USELESS:          0
PSCL2 USEFUL LOAD PREFETCHES:          0 PREFETCH ISSUED TO LOWER LEVEL:          0  ACCURACY: -nan
PSCL2 TIMELY PREFETCHES:          0 LATE PREFETCHES: 0 DROPPED PREFETCHES: 0
PSCL2 PREFETCHES SAME FILL-ORIGIN LEVEL: 0 DIFFERENT FILL-ORIGIN LEVEL: 0

LLC TOTAL     ACCESS:     321030  HIT:      70668  MISS:     250362  HIT %:    22.0129  MISS %:    77.9871   MPKI: 5.00724
LLC LOAD      ACCESS:      43778  HIT:         10  MISS:      43768  HIT %:  0.0228425  MISS %:    99.9772   MPKI: 0.87536
LLC RFO       ACCESS:      70620  HIT:          2  MISS:      70618  HIT %: 0.00283206  MISS %:    99.9972   MPKI: 1.41236
LLC PREFETCH  ACCESS:     135408  HIT:          9  MISS:     135399  HIT %: 0.00664658  MISS %:    99.9934   MPKI: 2.70798
AGUS PREFETCH L1 MISS: 0
LLC WRITEBACK ACCESS:      70734  HIT:      70645  MISS:         89  HIT %:    99.8742  MISS %:   0.125824   MPKI: 0.00178
LLC LOAD TRANSLATION ACCESS:        428  HIT:          0  MISS:        428  HIT %:          0  MISS %:        100   MPKI: 0.00856
LLC TRANSLATION FROM L1D PREFETCHER ACCESS:         62  HIT:          2  MISS:         60  HIT %:    3.22581  MISS %:    96.7742   MPKI: 0.0012
LLC PREFETCH  REQUESTED:          0  ISSUED:          0  USEFUL:          6  USELESS:     133748
LLC USEFUL LOAD PREFETCHES:          6 PREFETCH ISSUED TO LOWER LEVEL:     135399  ACCURACY: 0.00443135
LLC TIMELY PREFETCHES:          6 LATE PREFETCHES: 0 DROPPED PREFETCHES: 0
LLC PREFETCHES SAME FILL-ORIGIN LEVEL: 0 DIFFERENT FILL-ORIGIN LEVEL: 0
LLC AVERAGE MISS LATENCY: 180.825 cycles
LLC RQ	ACCESS:     114888	FORWARD:          0	MERGED:          0	TO_CACHE:     114888
LLC WQ	ACCESS:      70734	FORWARD:          0	MERGED:          0	TO_CACHE:      70734
LLC PQ	ACCESS:     135408	FORWARD:          0	MERGED:          0	TO_CACHE:     135408

LLC Dense regions hint to LLC: 0

RAW hits: 3302879
Loads Generated: 29030685
Loads sent to L1D: 25727790
Stores Generated: 8407608
Stores sent to L1D: 8407615
Major fault: 0 Minor fault: 4630
Allocated PAGES: 4630

stream: 
stream:times selected: 89592
stream:pref_filled: 385938
stream:pref_useful: 350344
stream:pref_late: 0
stream:misses: 5946
stream:misses_by_poll: 0

CS: 
CS:times selected: 9283
CS:pref_filled: 6614
CS:pref_useful: 3656
CS:pref_late: 0
CS:misses: 7849
CS:misses_by_poll: 7

CPLX: 
CPLX:times selected: 80107
CPLX:pref_filled: 3124
CPLX:pref_useful: 1887
CPLX:pref_late: 0
CPLX:misses: 37050
CPLX:misses_by_poll: 1

NL_L1: 
NL:times selected: 144
NL:pref_filled: 131
NL:pref_useful: 131
NL:pref_late: 0
NL:misses: 116
NL:misses_by_poll: 0

Coverage: 60.8637
total selections: 179126
total_filled: 217381
total_useful: 182176
total_late: 1
total_polluted: 8
total_misses_after_warmup: 118875
conflicts: 67428

test: 5738
ISB Prefetcher final stats
Training Unit Size: 87
Addr table size: 62994 62994


Triggers: 89599
No Prediction: 63528 70.9026
Stream end: 17179
No translation: 17348282 19362.1
Predictions: 33202 37.0562


Stream divergence: 17840 19.9109
Stream divergence -- new stream: 0

DRAM Statistics
 CHANNEL 0
 RQ ROW_BUFFER_HIT:      54577  ROW_BUFFER_MISS:     195696
 DBUS_CONGESTED:        149
 WQ ROW_BUFFER_HIT:      11547  ROW_BUFFER_MISS:      60742  FULL:          0

 AVG_CONGESTED_CYCLE: 4
 All warmup complete: 2
Channel 0 Bank busy for read cycles: 0
Channel 0 Bank busy for write cycles: 0
Channel 0
Rank 0
0banks busy for read cycles: 48807351
0banks busy for write cycles: 14941
1banks busy for read cycles: 6242750
1banks busy for write cycles: 1606717
2banks busy for read cycles: 1652531
2banks busy for write cycles: 647664
3banks busy for read cycles: 891767
3banks busy for write cycles: 425235
4banks busy for read cycles: 693290
4banks busy for write cycles: 267510
5banks busy for read cycles: 538836
5banks busy for write cycles: 217024
6banks busy for read cycles: 774639
6banks busy for write cycles: 260605
7banks busy for read cycles: 954904
7banks busy for write cycles: 318749
8banks busy for read cycles: 389468
8banks busy for write cycles: 484217

CPU 0 Branch Prediction Accuracy: 99.1743% MPKI: 0.01016 Average ROB Occupancy at Mispredict: 246.154
Branch types
NOT_BRANCH: 49938478 99.877%
BRANCH_DIRECT_JUMP: 502 0.001004%
BRANCH_INDIRECT: 0 0%
BRANCH_CONDITIONAL: 61022 0.122044%
BRANCH_DIRECT_CALL: 0 0%
BRANCH_INDIRECT_CALL: 0 0%
BRANCH_RETURN: 0 0%
BRANCH_OTHER: 0 0%

DRAM PAGES: 1048576
Allocated PAGES: 4630
