
*** ChampSim Multicore Out-of-Order Simulator ***

Warmup Instructions: 50000000
Simulation Instructions: 50000000
Number of CPUs: 1
LLC sets: 2048
LLC ways: 16
Off-chip DRAM Size: 4096 MB Channels: 1 Width: 64-bit Data Rate: 6400 MT/s
CPU 0 runs ./traces/SPEC-CPU2017/436.cactusADM-1804B.champsimtrace.xz
.xz
CPU 0 Bimodal branch predictor
BTB has LRU replacement policy
ITLB has LRU replacement policy
DTLB has LRU replacement policy
STLB has LRU replacement policy
L1I has LRU replacement policy
L1D has LRU replacement policy
L2C has LRU replacement policy
LLC has LRU replacement policy
Heartbeat CPU 0 instructions: 10000003 cycles: 4117177 heartbeat IPC: 2.42885 cumulative IPC: 2.42885 (Simulation time: 0 hr 21 min 44 sec) 
Heartbeat CPU 0 instructions: 20000000 cycles: 8315319 heartbeat IPC: 2.38201 cumulative IPC: 2.4052 (Simulation time: 0 hr 42 min 23 sec) 
Heartbeat CPU 0 instructions: 30000003 cycles: 12432121 heartbeat IPC: 2.42907 cumulative IPC: 2.4131 (Simulation time: 1 hr 0 min 12 sec) 
Heartbeat CPU 0 instructions: 40000000 cycles: 16548351 heartbeat IPC: 2.42941 cumulative IPC: 2.41716 (Simulation time: 1 hr 10 min 27 sec) 
Heartbeat CPU 0 instructions: 50000002 cycles: 20747102 heartbeat IPC: 2.38166 cumulative IPC: 2.40998 (Simulation time: 1 hr 18 min 37 sec) 

Warmup complete CPU 0 instructions: 50000002 cycles: 20747102 (Simulation time: 1 hr 18 min 37 sec) 

Heartbeat CPU 0 instructions: 60000000 cycles: 35439404 heartbeat IPC: 0.680628 cumulative IPC: 0.680628 (Simulation time: 1 hr 19 min 44 sec) 
Heartbeat CPU 0 instructions: 70000003 cycles: 51666327 heartbeat IPC: 0.61626 cumulative IPC: 0.646847 (Simulation time: 1 hr 20 min 54 sec) 
Heartbeat CPU 0 instructions: 80000000 cycles: 66367065 heartbeat IPC: 0.680238 cumulative IPC: 0.657607 (Simulation time: 1 hr 21 min 56 sec) 
Heartbeat CPU 0 instructions: 90000000 cycles: 82536432 heartbeat IPC: 0.618453 cumulative IPC: 0.647361 (Simulation time: 1 hr 23 min 4 sec) 
Heartbeat CPU 0 instructions: 100000000 cycles: 97219415 heartbeat IPC: 0.68106 cumulative IPC: 0.653831 (Simulation time: 1 hr 24 min 6 sec) 
Finished CPU 0 instructions: 50000000 cycles: 76472330 cumulative IPC: 0.653831 (Simulation time: 1 hr 24 min 6 sec) 

ChampSim completed all CPUs

Region of Interest Statistics

CPU 0 cumulative IPC: 0.653831 instructions: 50000000 cycles: 76472330
ITLB TOTAL     ACCESS:    8260895  HIT:    8260895  MISS:          0  HIT %:        100  MISS %:          0   MPKI: 0
ITLB LOAD TRANSLATION ACCESS:    8260895  HIT:    8260895  MISS:          0  HIT %:        100  MISS %:          0   MPKI: 0
ITLB PREFETCH  REQUESTED:          0  ISSUED:          0  USEFUL:          0  USELESS:          0
ITLB USEFUL LOAD PREFETCHES:          0 PREFETCH ISSUED TO LOWER LEVEL:          0  ACCURACY: -nan
ITLB TIMELY PREFETCHES:          0 LATE PREFETCHES: 0 DROPPED PREFETCHES: 0
ITLB PREFETCHES SAME FILL-ORIGIN LEVEL: 0 DIFFERENT FILL-ORIGIN LEVEL: 0
ITLB AVERAGE MISS LATENCY: -nan cycles
ITLB RQ	ACCESS:    9869311	FORWARD:          0	MERGED:    1608417	TO_CACHE:    8260894

DTLB TOTAL     ACCESS:   14686707  HIT:   13398361  MISS:    1288346  HIT %:    91.2278  MISS %:    8.77219   MPKI: 25.7669
DTLB LOAD TRANSLATION ACCESS:   14686707  HIT:   13398361  MISS:    1288346  HIT %:    91.2278  MISS %:    8.77219   MPKI: 25.7669
DTLB PREFETCH  REQUESTED:          0  ISSUED:          0  USEFUL:          0  USELESS:          0
DTLB USEFUL LOAD PREFETCHES:          0 PREFETCH ISSUED TO LOWER LEVEL:          0  ACCURACY: -nan
DTLB TIMELY PREFETCHES:          0 LATE PREFETCHES: 0 DROPPED PREFETCHES: 0
DTLB PREFETCHES SAME FILL-ORIGIN LEVEL: 0 DIFFERENT FILL-ORIGIN LEVEL: 0
DTLB AVERAGE MISS LATENCY: 26.9145 cycles
DTLB RQ	ACCESS:   23028944	FORWARD:          0	MERGED:    8322196	TO_CACHE:   14706748

STLB TOTAL     ACCESS:    1316550  HIT:     835032  MISS:     481518  HIT %:    63.4258  MISS %:    36.5742   MPKI: 9.63036
STLB LOAD TRANSLATION ACCESS:    1288346  HIT:     806855  MISS:     481491  HIT %:    62.6272  MISS %:    37.3728   MPKI: 9.62982
STLB TRANSLATION FROM L1D PREFETCHER ACCESS:      28204  HIT:      28177  MISS:         27  HIT %:    99.9043  MISS %:  0.0957311   MPKI: 0.00054
STLB PREFETCH  REQUESTED:          0  ISSUED:          0  USEFUL:         21  USELESS:          0
STLB USEFUL LOAD PREFETCHES:         21 PREFETCH ISSUED TO LOWER LEVEL:          0  ACCURACY: inf
STLB TIMELY PREFETCHES:         21 LATE PREFETCHES: 0 DROPPED PREFETCHES: 0
STLB PREFETCHES SAME FILL-ORIGIN LEVEL: 0 DIFFERENT FILL-ORIGIN LEVEL: 0
STLB AVERAGE MISS LATENCY: 47.0711 cycles
STLB RQ	ACCESS:    1410083	FORWARD:          0	MERGED:      93532	TO_CACHE:    1316551

STLB Hit, L1D data hit: 0
STLB Hit, L2C data hit: 0
STLB Hit, LLC data hit: 0
STLB Hit, LLC data miss: 0
STLB STLB hints to L2: 0
L1D TOTAL     ACCESS:   23099967  HIT:   22735658  MISS:     364309  HIT %:    98.4229  MISS %:     1.5771   MPKI: 7.28618
L1D LOAD      ACCESS:   15167494  HIT:   14912170  MISS:     255324  HIT %:    98.3166  MISS %:    1.68336   MPKI: 5.10648
L1D RFO       ACCESS:    7810739  HIT:    7740066  MISS:      70673  HIT %:    99.0952  MISS %:   0.904818   MPKI: 1.41346
L1D PREFETCH  ACCESS:     121734  HIT:      83422  MISS:      38312  HIT %:    68.5281  MISS %:    31.4719   MPKI: 0.76624
AGUS PREFETCH L1 MISS: 0
L1D PREFETCH  REQUESTED:     306813  ISSUED:     243472  USEFUL:      38189  USELESS:        123
L1D USEFUL LOAD PREFETCHES:      38189 PREFETCH ISSUED TO LOWER LEVEL:      38312  ACCURACY: 99.679
L1D TIMELY PREFETCHES:      38189 LATE PREFETCHES: 0 DROPPED PREFETCHES: 0
L1D PREFETCHES SAME FILL-ORIGIN LEVEL: 38312 DIFFERENT FILL-ORIGIN LEVEL: 0
L1D AVERAGE MISS LATENCY: 165.301 cycles
L1D RQ	ACCESS:   25723749	FORWARD:          0	MERGED:   10418581	TO_CACHE:   15169183
L1D WQ	ACCESS:    8407615	FORWARD:     135985	MERGED:     547854	TO_CACHE:    7859761
L1D PQ	ACCESS:     121736	FORWARD:          0	MERGED:          0	TO_CACHE:     121736

L1D UNIQUE REGIONS ACCESSED: 0
L1D REGIONS CONFLICTS: 0
L1D Cross Page Prefetch Requests: 30
L1D Same Page Prefetch Requests: 242854
L1D ROI Sum of L1D PQ occupancy: 1851297
L1D PREFETCHES PUSHED FROM L2C: 0
L1I TOTAL     ACCESS:    9869313  HIT:    9869313  MISS:          0  HIT %:        100  MISS %:          0   MPKI: 0
L1I LOAD      ACCESS:    9869313  HIT:    9869313  MISS:          0  HIT %:        100  MISS %:          0   MPKI: 0
L1I PREFETCH  REQUESTED:          0  ISSUED:          0  USEFUL:          0  USELESS:          0
L1I USEFUL LOAD PREFETCHES:          0 PREFETCH ISSUED TO LOWER LEVEL:          0  ACCURACY: -nan
L1I TIMELY PREFETCHES:          0 LATE PREFETCHES: 0 DROPPED PREFETCHES: 0
L1I PREFETCHES SAME FILL-ORIGIN LEVEL: 0 DIFFERENT FILL-ORIGIN LEVEL: 0
L1I AVERAGE MISS LATENCY: -nan cycles
L1I RQ	ACCESS:   16804963	FORWARD:          0	MERGED:    6935652	TO_CACHE:    9869311

BTB TOTAL     ACCESS:      60897  HIT:      60890  MISS:          7  HIT %:    99.9885  MISS %:  0.0114948   MPKI: 0.00014
BTB BRANCH_DIRECT_JUMP	ACCESS:        502  HIT:        500  MISS:          2
BTB BRANCH_INDIRECT	ACCESS:          0  HIT:          0  MISS:          0
BTB BRANCH_CONDITIONAL	ACCESS:      60395  HIT:      60390  MISS:          5
BTB BRANCH_DIRECT_CALL	ACCESS:          0  HIT:          0  MISS:          0
BTB BRANCH_INDIRECT_CALL	ACCESS:          0  HIT:          0  MISS:          0
BTB BRANCH_RETURN	ACCESS:          0  HIT:          0  MISS:          0
BTB BRANCH_OTHER ACCESS:          0  HIT:          0  MISS:          0

L2C TOTAL     ACCESS:    1363846  HIT:    1113667  MISS:     250179  HIT %:    81.6564  MISS %:    18.3436   MPKI: 5.00358
L2C LOAD      ACCESS:     255324  HIT:     114703  MISS:     140621  HIT %:    44.9245  MISS %:    55.0755   MPKI: 2.81242
L2C DATA LOAD MPKI: 2.81242
L2C INSTRUCTION LOAD MPKI: 0
L2C RFO       ACCESS:      70673  HIT:          2  MISS:      70671  HIT %: 0.00282994  MISS %:    99.9972   MPKI: 1.41342
L2C PREFETCH  ACCESS:      38312  HIT:          2  MISS:      38310  HIT %:  0.0052203  MISS %:    99.9948   MPKI: 0.7662
AGUS PREFETCH L1 MISS: 0
L2C DATA PREFETCH MPKI: 0.7662
L2C INSTRUCTION PREFETCH MPKI: 0
L2C WRITEBACK ACCESS:      73554  HIT:      73465  MISS:         89  HIT %:     99.879  MISS %:      0.121   MPKI: 0.00178
L2C LOAD TRANSLATION ACCESS:     925952  HIT:     925469  MISS:        483  HIT %:    99.9478  MISS %:  0.0521625   MPKI: 0.00966
L2C TRANSLATION FROM L1D PREFETCHER ACCESS:         31  HIT:         26  MISS:          5  HIT %:     83.871  MISS %:     16.129   MPKI: 0.0001
L2C PREFETCH  REQUESTED:          0  ISSUED:          0  USEFUL:       1217  USELESS:      37097
L2C USEFUL LOAD PREFETCHES:       1217 PREFETCH ISSUED TO LOWER LEVEL:      38310  ACCURACY: 3.17672
L2C TIMELY PREFETCHES:       1217 LATE PREFETCHES: 0 DROPPED PREFETCHES: 0
L2C PREFETCHES SAME FILL-ORIGIN LEVEL: 0 DIFFERENT FILL-ORIGIN LEVEL: 0
L2C AVERAGE MISS LATENCY: 218.558 cycles
L2C RQ	ACCESS:    1251981	FORWARD:          0	MERGED:          0	TO_CACHE:    1251981
L2C WQ	ACCESS:      73554	FORWARD:          0	MERGED:          0	TO_CACHE:      73554
L2C PQ	ACCESS:      38312	FORWARD:          0	MERGED:          0	TO_CACHE:      38312

L2C Instructions Evicting Data 0
L2C Translations Evicting Data 488
L2C Data Evicting Data 249127
L2C Instructions Evicting Instructions 0
L2C Translations Evicting Instructions 0
L2C Data Evicting Instructions 0
L2C Instructions Evicting Translations 0
L2C Translations Evicting Translations 0
L2C Data Evicting Translations 475
L2C Dense regions hint from L2: 0
PSCL5 TOTAL     ACCESS:     481519  HIT:     481519  MISS:          0  HIT %:        100  MISS %:          0   MPKI: 0
PSCL5 LOAD TRANSLATION ACCESS:     481492  HIT:     481492  MISS:          0  HIT %:        100  MISS %:          0   MPKI: 0
PSCL5 TRANSLATION FROM L1D PREFETCHER ACCESS:         27  HIT:         27  MISS:          0  HIT %:        100  MISS %:          0   MPKI: 0
PSCL5 PREFETCH  REQUESTED:          0  ISSUED:          0  USEFUL:          0  USELESS:          0
PSCL5 USEFUL LOAD PREFETCHES:          0 PREFETCH ISSUED TO LOWER LEVEL:          0  ACCURACY: -nan
PSCL5 TIMELY PREFETCHES:          0 LATE PREFETCHES: 0 DROPPED PREFETCHES: 0
PSCL5 PREFETCHES SAME FILL-ORIGIN LEVEL: 0 DIFFERENT FILL-ORIGIN LEVEL: 0

PSCL4 TOTAL     ACCESS:     481519  HIT:     481519  MISS:          0  HIT %:        100  MISS %:          0   MPKI: 0
PSCL4 LOAD TRANSLATION ACCESS:     481492  HIT:     481492  MISS:          0  HIT %:        100  MISS %:          0   MPKI: 0
PSCL4 TRANSLATION FROM L1D PREFETCHER ACCESS:         27  HIT:         27  MISS:          0  HIT %:        100  MISS %:          0   MPKI: 0
PSCL4 PREFETCH  REQUESTED:          0  ISSUED:          0  USEFUL:          0  USELESS:          0
PSCL4 USEFUL LOAD PREFETCHES:          0 PREFETCH ISSUED TO LOWER LEVEL:          0  ACCURACY: -nan
PSCL4 TIMELY PREFETCHES:          0 LATE PREFETCHES: 0 DROPPED PREFETCHES: 0
PSCL4 PREFETCHES SAME FILL-ORIGIN LEVEL: 0 DIFFERENT FILL-ORIGIN LEVEL: 0

PSCL3 TOTAL     ACCESS:     481519  HIT:     481519  MISS:          0  HIT %:        100  MISS %:          0   MPKI: 0
PSCL3 LOAD TRANSLATION ACCESS:     481492  HIT:     481492  MISS:          0  HIT %:        100  MISS %:          0   MPKI: 0
PSCL3 TRANSLATION FROM L1D PREFETCHER ACCESS:         27  HIT:         27  MISS:          0  HIT %:        100  MISS %:          0   MPKI: 0
PSCL3 PREFETCH  REQUESTED:          0  ISSUED:          0  USEFUL:          0  USELESS:          0
PSCL3 USEFUL LOAD PREFETCHES:          0 PREFETCH ISSUED TO LOWER LEVEL:          0  ACCURACY: -nan
PSCL3 TIMELY PREFETCHES:          0 LATE PREFETCHES: 0 DROPPED PREFETCHES: 0
PSCL3 PREFETCHES SAME FILL-ORIGIN LEVEL: 0 DIFFERENT FILL-ORIGIN LEVEL: 0

PSCL2 TOTAL     ACCESS:     481518  HIT:      37054  MISS:     444464  HIT %:    7.69525  MISS %:    92.3048   MPKI: 8.88928
PSCL2 LOAD TRANSLATION ACCESS:     481495  HIT:      37031  MISS:     444464  HIT %:    7.69084  MISS %:    92.3092   MPKI: 8.88928
PSCL2 TRANSLATION FROM L1D PREFETCHER ACCESS:         23  HIT:         23  MISS:          0  HIT %:        100  MISS %:          0   MPKI: 0
PSCL2 PREFETCH  REQUESTED:          0  ISSUED:          0  USEFUL:          0  USELESS:          0
PSCL2 USEFUL LOAD PREFETCHES:          0 PREFETCH ISSUED TO LOWER LEVEL:          0  ACCURACY: -nan
PSCL2 TIMELY PREFETCHES:          0 LATE PREFETCHES: 0 DROPPED PREFETCHES: 0
PSCL2 PREFETCHES SAME FILL-ORIGIN LEVEL: 0 DIFFERENT FILL-ORIGIN LEVEL: 0

LLC TOTAL     ACCESS:     320826  HIT:      70672  MISS:     250154  HIT %:    22.0281  MISS %:    77.9719   MPKI: 5.00308
LLC LOAD      ACCESS:     140621  HIT:         35  MISS:     140586  HIT %:  0.0248896  MISS %:    99.9751   MPKI: 2.81172
LLC RFO       ACCESS:      70671  HIT:          0  MISS:      70671  HIT %:          0  MISS %:        100   MPKI: 1.41342
LLC PREFETCH  ACCESS:      38310  HIT:          1  MISS:      38309  HIT %: 0.00261028  MISS %:    99.9974   MPKI: 0.76618
AGUS PREFETCH L1 MISS: 0
LLC WRITEBACK ACCESS:      70736  HIT:      70634  MISS:        102  HIT %:    99.8558  MISS %:   0.144198   MPKI: 0.00204
LLC LOAD TRANSLATION ACCESS:        483  HIT:          2  MISS:        481  HIT %:   0.414079  MISS %:    99.5859   MPKI: 0.00962
LLC TRANSLATION FROM L1D PREFETCHER ACCESS:          5  HIT:          0  MISS:          5  HIT %:          0  MISS %:        100   MPKI: 0.0001
LLC PREFETCH  REQUESTED:          0  ISSUED:          0  USEFUL:         14  USELESS:      39847
LLC USEFUL LOAD PREFETCHES:         14 PREFETCH ISSUED TO LOWER LEVEL:      38309  ACCURACY: 0.0365449
LLC TIMELY PREFETCHES:         14 LATE PREFETCHES: 0 DROPPED PREFETCHES: 0
LLC PREFETCHES SAME FILL-ORIGIN LEVEL: 0 DIFFERENT FILL-ORIGIN LEVEL: 0
LLC AVERAGE MISS LATENCY: 188.154 cycles
LLC RQ	ACCESS:     211780	FORWARD:          0	MERGED:          0	TO_CACHE:     211780
LLC WQ	ACCESS:      70736	FORWARD:          0	MERGED:          0	TO_CACHE:      70736
LLC PQ	ACCESS:      38310	FORWARD:          0	MERGED:          0	TO_CACHE:      38310

LLC Dense regions hint to LLC: 0

RAW hits: 3306920
Loads Generated: 29030685
Loads sent to L1D: 25723749
Stores Generated: 8407608
Stores sent to L1D: 8407615
Major fault: 0 Minor fault: 4630
Allocated PAGES: 4630

stream: 
stream:times selected: 75064
stream:pref_reqs: 425460
stream:pref_reqs_filtered_out: 51225
stream:pref_filled: 77843
stream:pref_useful: 77658
stream:pref_late: 0
stream:misses: 3
stream:misses_by_poll: 0

CS: 
CS:times selected: 65982
CS:pref_reqs: 194971
CS:pref_reqs_filtered_out: 190798
CS:pref_filled: 213
CS:pref_useful: 213
CS:pref_late: 0
CS:misses: 1950
CS:misses_by_poll: 0

CPLX: 
CPLX:times selected: 9028
CPLX:pref_reqs: 26062
CPLX:pref_reqs_filtered_out: 25879
CPLX:pref_filled: 49
CPLX:pref_useful: 49
CPLX:pref_late: 0
CPLX:misses: 82
CPLX:misses_by_poll: 0

ISB: 
ISB:total access:697320
ISB:times selected:35726
ISB:canary counter:0
ISB:pref_reqs: 36
ISB:pref_reqs_filtered_out: 6
ISB:pref_filled: 30
ISB:pref_useful: 0
ISB:pref_late: 0
ISB:misses: 2396
ISB:misses_by_poll: 0
ISB:Stream end: 35720
ISB:No Prediction: 661594 94.8767
ISB:No translation: 24789645 3554.99
ISB:Predictions: 30 0.00430219

NL_L1: 
NL:times selected: 7
NL:pref_reqs: 7
NL:pref_reqs_filtered_out: 0
NL:pref_filled: 7
NL:pref_useful: 7
NL:pref_late: 0
NL:misses: 0
NL:misses_by_poll: 0

Coverage: 13.011
total selections: 185807
total_filled: 38312
total_useful: 38189
total_late: 0
total_polluted: 0
total_misses_after_warmup: 257006
conflicts: 16334626

test: 0
Prefetcher final stats
Training Unit Size: 27
Addr table size: 6573 6573
Stream divergence: 2 0.000286812
Stream divergence -- new stream: 0
--------------------------Training unit table ------------------------

DRAM Statistics
 CHANNEL 0
 RQ ROW_BUFFER_HIT:      58835  ROW_BUFFER_MISS:     191217
 DBUS_CONGESTED:        167
 WQ ROW_BUFFER_HIT:      13140  ROW_BUFFER_MISS:      59171  FULL:          0

 AVG_CONGESTED_CYCLE: 4
 All warmup complete: 2
Channel 0 Bank busy for read cycles: 0
Channel 0 Bank busy for write cycles: 0
Channel 0
Rank 0
0banks busy for read cycles: 49841071
0banks busy for write cycles: 30244
1banks busy for read cycles: 14287919
1banks busy for write cycles: 4738780
2banks busy for read cycles: 1577093
2banks busy for write cycles: 922241
3banks busy for read cycles: 964693
3banks busy for write cycles: 589602
4banks busy for read cycles: 1490952
4banks busy for write cycles: 363169
5banks busy for read cycles: 601357
5banks busy for write cycles: 196802
6banks busy for read cycles: 166853
6banks busy for write cycles: 74526
7banks busy for read cycles: 161891
7banks busy for write cycles: 86870
8banks busy for read cycles: 31240
8banks busy for write cycles: 347028

CPU 0 Branch Prediction Accuracy: 99.1743% MPKI: 0.01016 Average ROB Occupancy at Mispredict: 246.154
Branch types
NOT_BRANCH: 49938478 99.877%
BRANCH_DIRECT_JUMP: 502 0.001004%
BRANCH_INDIRECT: 0 0%
BRANCH_CONDITIONAL: 61022 0.122044%
BRANCH_DIRECT_CALL: 0 0%
BRANCH_INDIRECT_CALL: 0 0%
BRANCH_RETURN: 0 0%
BRANCH_OTHER: 0 0%

DRAM PAGES: 1048576
Allocated PAGES: 4630
