
*** ChampSim Multicore Out-of-Order Simulator ***

Warmup Instructions: 50000000
Simulation Instructions: 50000000
Number of CPUs: 1
LLC sets: 2048
LLC ways: 16
Off-chip DRAM Size: 4096 MB Channels: 1 Width: 64-bit Data Rate: 6400 MT/s
CPU 0 runs ./traces/SPEC-CPU2017/450.soplex-247B.champsimtrace.xz
.xz
CPU 0 Bimodal branch predictor
BTB has LRU replacement policy
ITLB has LRU replacement policy
DTLB has LRU replacement policy
STLB has LRU replacement policy
L1I has LRU replacement policy
L1D has LRU replacement policy
L2C has LRU replacement policy
LLC has LRU replacement policy
Heartbeat CPU 0 instructions: 10000002 cycles: 3559540 heartbeat IPC: 2.80935 cumulative IPC: 2.80935 (Simulation time: 0 hr 9 min 58 sec) 
Heartbeat CPU 0 instructions: 20000000 cycles: 6795762 heartbeat IPC: 3.09002 cumulative IPC: 2.94301 (Simulation time: 0 hr 18 min 58 sec) 
Heartbeat CPU 0 instructions: 30000001 cycles: 10014678 heartbeat IPC: 3.10664 cumulative IPC: 2.9956 (Simulation time: 0 hr 28 min 10 sec) 
Heartbeat CPU 0 instructions: 40000000 cycles: 13235142 heartbeat IPC: 3.10514 cumulative IPC: 3.02226 (Simulation time: 0 hr 35 min 37 sec) 
Heartbeat CPU 0 instructions: 50000000 cycles: 16448018 heartbeat IPC: 3.11248 cumulative IPC: 3.03988 (Simulation time: 0 hr 43 min 0 sec) 

Warmup complete CPU 0 instructions: 50000004 cycles: 16448019 (Simulation time: 0 hr 43 min 0 sec) 

Heartbeat CPU 0 instructions: 60000000 cycles: 39717479 heartbeat IPC: 0.429748 cumulative IPC: 0.429748 (Simulation time: 0 hr 45 min 26 sec) 
Heartbeat CPU 0 instructions: 70000000 cycles: 63995547 heartbeat IPC: 0.411894 cumulative IPC: 0.420632 (Simulation time: 0 hr 48 min 14 sec) 
Heartbeat CPU 0 instructions: 80000000 cycles: 87761269 heartbeat IPC: 0.420774 cumulative IPC: 0.420679 (Simulation time: 0 hr 51 min 3 sec) 
Heartbeat CPU 0 instructions: 90000002 cycles: 112162796 heartbeat IPC: 0.409811 cumulative IPC: 0.417908 (Simulation time: 0 hr 54 min 2 sec) 
Heartbeat CPU 0 instructions: 100000000 cycles: 134928192 heartbeat IPC: 0.439263 cumulative IPC: 0.422011 (Simulation time: 0 hr 56 min 52 sec) 
Finished CPU 0 instructions: 50000000 cycles: 118480181 cumulative IPC: 0.422011 (Simulation time: 0 hr 56 min 52 sec) 

ChampSim completed all CPUs

Region of Interest Statistics

CPU 0 cumulative IPC: 0.422011 instructions: 50000000 cycles: 118480181
ITLB TOTAL     ACCESS:    8587817  HIT:    8587817  MISS:          0  HIT %:        100  MISS %:          0   MPKI: 0
ITLB LOAD TRANSLATION ACCESS:    8587817  HIT:    8587817  MISS:          0  HIT %:        100  MISS %:          0   MPKI: 0
ITLB PREFETCH  REQUESTED:          0  ISSUED:          0  USEFUL:          0  USELESS:          0
ITLB USEFUL LOAD PREFETCHES:          0 PREFETCH ISSUED TO LOWER LEVEL:          0  ACCURACY: -nan
ITLB TIMELY PREFETCHES:          0 LATE PREFETCHES: 0 DROPPED PREFETCHES: 0
ITLB PREFETCHES SAME FILL-ORIGIN LEVEL: 0 DIFFERENT FILL-ORIGIN LEVEL: 0
ITLB AVERAGE MISS LATENCY: -nan cycles
ITLB RQ	ACCESS:    9601128	FORWARD:          0	MERGED:    1013311	TO_CACHE:    8587817

DTLB TOTAL     ACCESS:    9787638  HIT:    9513812  MISS:     273826  HIT %:    97.2023  MISS %:    2.79767   MPKI: 5.47652
DTLB LOAD TRANSLATION ACCESS:    9787638  HIT:    9513812  MISS:     273826  HIT %:    97.2023  MISS %:    2.79767   MPKI: 5.47652
DTLB PREFETCH  REQUESTED:          0  ISSUED:          0  USEFUL:          0  USELESS:          0
DTLB USEFUL LOAD PREFETCHES:          0 PREFETCH ISSUED TO LOWER LEVEL:          0  ACCURACY: -nan
DTLB TIMELY PREFETCHES:          0 LATE PREFETCHES: 0 DROPPED PREFETCHES: 0
DTLB PREFETCHES SAME FILL-ORIGIN LEVEL: 0 DIFFERENT FILL-ORIGIN LEVEL: 0
DTLB AVERAGE MISS LATENCY: 13.8818 cycles
DTLB RQ	ACCESS:   11053358	FORWARD:          0	MERGED:    1222814	TO_CACHE:    9830544

STLB TOTAL     ACCESS:    2725103  HIT:    2682570  MISS:      42533  HIT %:    98.4392  MISS %:    1.56079   MPKI: 0.85066
STLB LOAD TRANSLATION ACCESS:     273826  HIT:     265044  MISS:       8782  HIT %:    96.7929  MISS %:    3.20715   MPKI: 0.17564
STLB TRANSLATION FROM L1D PREFETCHER ACCESS:    2451277  HIT:    2417526  MISS:      33751  HIT %:    98.6231  MISS %:    1.37687   MPKI: 0.67502
STLB PREFETCH  REQUESTED:          0  ISSUED:          0  USEFUL:      33366  USELESS:        395
STLB USEFUL LOAD PREFETCHES:      33366 PREFETCH ISSUED TO LOWER LEVEL:          0  ACCURACY: inf
STLB TIMELY PREFETCHES:      33366 LATE PREFETCHES: 941 DROPPED PREFETCHES: 0
STLB PREFETCHES SAME FILL-ORIGIN LEVEL: 0 DIFFERENT FILL-ORIGIN LEVEL: 0
STLB AVERAGE MISS LATENCY: 110.313 cycles
STLB RQ	ACCESS:    3823893	FORWARD:          0	MERGED:    1097056	TO_CACHE:    2726837

STLB Hit, L1D data hit: 0
STLB Hit, L2C data hit: 0
STLB Hit, LLC data hit: 0
STLB Hit, LLC data miss: 0
STLB STLB hints to L2: 0
L1D TOTAL     ACCESS:   13202588  HIT:    9448369  MISS:    3754219  HIT %:    71.5645  MISS %:    28.4355   MPKI: 75.0844
L1D LOAD      ACCESS:    7875084  HIT:    6624949  MISS:    1250135  HIT %:    84.1254  MISS %:    15.8746   MPKI: 25.0027
L1D RFO       ACCESS:    2174473  HIT:    1877981  MISS:     296492  HIT %:    86.3649  MISS %:    13.6351   MPKI: 5.92984
L1D PREFETCH  ACCESS:    3153031  HIT:     945439  MISS:    2207592  HIT %:    29.9851  MISS %:    70.0149   MPKI: 44.1518
AGUS PREFETCH L1 MISS: 0
L1D PREFETCH  REQUESTED:    7405091  ISSUED:    7100616  USEFUL:    1064160  USELESS:    1143504
L1D USEFUL LOAD PREFETCHES:    1064160 PREFETCH ISSUED TO LOWER LEVEL:    2426338  ACCURACY: 43.8587
L1D TIMELY PREFETCHES:    1064160 LATE PREFETCHES: 218744 DROPPED PREFETCHES: 0
L1D PREFETCHES SAME FILL-ORIGIN LEVEL: 2426338 DIFFERENT FILL-ORIGIN LEVEL: 0
L1D AVERAGE MISS LATENCY: 170.266 cycles
L1D RQ	ACCESS:   14859603	FORWARD:          0	MERGED:    6843079	TO_CACHE:    8011397
L1D WQ	ACCESS:    3057587	FORWARD:       5605	MERGED:      15626	TO_CACHE:    3041961
L1D PQ	ACCESS:    3550549	FORWARD:          0	MERGED:          4	TO_CACHE:    3550067

L1D UNIQUE REGIONS ACCESSED: 0
L1D REGIONS CONFLICTS: 0
L1D Cross Page Prefetch Requests: 1334370
L1D Same Page Prefetch Requests: 5988578
L1D ROI Sum of L1D PQ occupancy: 82281332
L1D PREFETCHES PUSHED FROM L2C: 0
L1I TOTAL     ACCESS:    9601093  HIT:    9600983  MISS:        110  HIT %:    99.9989  MISS %:  0.0011457   MPKI: 0.0022
L1I LOAD      ACCESS:    9601093  HIT:    9600983  MISS:        110  HIT %:    99.9989  MISS %:  0.0011457   MPKI: 0.0022
L1I PREFETCH  REQUESTED:          0  ISSUED:          0  USEFUL:          0  USELESS:          0
L1I USEFUL LOAD PREFETCHES:          0 PREFETCH ISSUED TO LOWER LEVEL:          0  ACCURACY: -nan
L1I TIMELY PREFETCHES:          0 LATE PREFETCHES: 0 DROPPED PREFETCHES: 0
L1I PREFETCHES SAME FILL-ORIGIN LEVEL: 0 DIFFERENT FILL-ORIGIN LEVEL: 0
L1I AVERAGE MISS LATENCY: 244.273 cycles
L1I RQ	ACCESS:   13847564	FORWARD:          0	MERGED:    4246436	TO_CACHE:    9601128

BTB TOTAL     ACCESS:    6809348  HIT:    6808760  MISS:        588  HIT %:    99.9914  MISS %: 0.00863519   MPKI: 0.01176
BTB BRANCH_DIRECT_JUMP	ACCESS:      51581  HIT:      51508  MISS:         73
BTB BRANCH_INDIRECT	ACCESS:         18  HIT:         11  MISS:          7
BTB BRANCH_CONDITIONAL	ACCESS:    6754143  HIT:    6753939  MISS:        204
BTB BRANCH_DIRECT_CALL	ACCESS:       1703  HIT:       1632  MISS:         71
BTB BRANCH_INDIRECT_CALL	ACCESS:        102  HIT:         81  MISS:         21
BTB BRANCH_RETURN	ACCESS:       1801  HIT:       1589  MISS:        212
BTB BRANCH_OTHER ACCESS:          0  HIT:          0  MISS:          0

L2C TOTAL     ACCESS:    4882808  HIT:    2260631  MISS:    2622177  HIT %:    46.2978  MISS %:    53.7022   MPKI: 52.4435
L2C LOAD      ACCESS:    1031368  HIT:     450116  MISS:     581252  HIT %:    43.6426  MISS %:    56.3574   MPKI: 11.625
L2C DATA LOAD MPKI: 11.6228
L2C INSTRUCTION LOAD MPKI: 0.0022
L2C RFO       ACCESS:     296485  HIT:      26275  MISS:     270210  HIT %:    8.86217  MISS %:    91.1378   MPKI: 5.4042
L2C PREFETCH  ACCESS:    2426246  HIT:     667041  MISS:    1759205  HIT %:    27.4927  MISS %:    72.5073   MPKI: 35.1841
AGUS PREFETCH L1 MISS: 0
L2C DATA PREFETCH MPKI: 35.1841
L2C INSTRUCTION PREFETCH MPKI: 0
L2C WRITEBACK ACCESS:    1085951  HIT:    1085908  MISS:         43  HIT %:     99.996  MISS %: 0.00395966   MPKI: 0.00086
L2C LOAD TRANSLATION ACCESS:       8006  HIT:       5876  MISS:       2130  HIT %:     73.395  MISS %:     26.605   MPKI: 0.0426
L2C TRANSLATION FROM L1D PREFETCHER ACCESS:      34752  HIT:      25415  MISS:       9337  HIT %:    73.1325  MISS %:    26.8675   MPKI: 0.18674
L2C PREFETCH  REQUESTED:          0  ISSUED:          0  USEFUL:     141583  USELESS:    1634192
L2C USEFUL LOAD PREFETCHES:     141583 PREFETCH ISSUED TO LOWER LEVEL:    1759204  ACCURACY: 8.04813
L2C TIMELY PREFETCHES:     141583 LATE PREFETCHES: 0 DROPPED PREFETCHES: 0
L2C PREFETCHES SAME FILL-ORIGIN LEVEL: 0 DIFFERENT FILL-ORIGIN LEVEL: 0
L2C AVERAGE MISS LATENCY: 223.166 cycles
L2C RQ	ACCESS:    1370752	FORWARD:          0	MERGED:          0	TO_CACHE:    1370615
L2C WQ	ACCESS:    1085952	FORWARD:        230	MERGED:          0	TO_CACHE:    1085952
L2C PQ	ACCESS:    2426338	FORWARD:          0	MERGED:          0	TO_CACHE:    2426245

L2C Instructions Evicting Data 109
L2C Translations Evicting Data 11372
L2C Data Evicting Data 2599085
L2C Instructions Evicting Instructions 0
L2C Translations Evicting Instructions 0
L2C Data Evicting Instructions 107
L2C Instructions Evicting Translations 1
L2C Translations Evicting Translations 95
L2C Data Evicting Translations 11365
L2C Dense regions hint from L2: 0
PSCL5 TOTAL     ACCESS:      42533  HIT:      42533  MISS:          0  HIT %:        100  MISS %:          0   MPKI: 0
PSCL5 LOAD TRANSLATION ACCESS:       7841  HIT:       7841  MISS:          0  HIT %:        100  MISS %:          0   MPKI: 0
PSCL5 TRANSLATION FROM L1D PREFETCHER ACCESS:      34692  HIT:      34692  MISS:          0  HIT %:        100  MISS %:          0   MPKI: 0
PSCL5 PREFETCH  REQUESTED:          0  ISSUED:          0  USEFUL:          0  USELESS:          0
PSCL5 USEFUL LOAD PREFETCHES:          0 PREFETCH ISSUED TO LOWER LEVEL:          0  ACCURACY: -nan
PSCL5 TIMELY PREFETCHES:          0 LATE PREFETCHES: 0 DROPPED PREFETCHES: 0
PSCL5 PREFETCHES SAME FILL-ORIGIN LEVEL: 0 DIFFERENT FILL-ORIGIN LEVEL: 0

PSCL4 TOTAL     ACCESS:      42533  HIT:      42533  MISS:          0  HIT %:        100  MISS %:          0   MPKI: 0
PSCL4 LOAD TRANSLATION ACCESS:       7841  HIT:       7841  MISS:          0  HIT %:        100  MISS %:          0   MPKI: 0
PSCL4 TRANSLATION FROM L1D PREFETCHER ACCESS:      34692  HIT:      34692  MISS:          0  HIT %:        100  MISS %:          0   MPKI: 0
PSCL4 PREFETCH  REQUESTED:          0  ISSUED:          0  USEFUL:          0  USELESS:          0
PSCL4 USEFUL LOAD PREFETCHES:          0 PREFETCH ISSUED TO LOWER LEVEL:          0  ACCURACY: -nan
PSCL4 TIMELY PREFETCHES:          0 LATE PREFETCHES: 0 DROPPED PREFETCHES: 0
PSCL4 PREFETCHES SAME FILL-ORIGIN LEVEL: 0 DIFFERENT FILL-ORIGIN LEVEL: 0

PSCL3 TOTAL     ACCESS:      42533  HIT:      42533  MISS:          0  HIT %:        100  MISS %:          0   MPKI: 0
PSCL3 LOAD TRANSLATION ACCESS:       7841  HIT:       7841  MISS:          0  HIT %:        100  MISS %:          0   MPKI: 0
PSCL3 TRANSLATION FROM L1D PREFETCHER ACCESS:      34692  HIT:      34692  MISS:          0  HIT %:        100  MISS %:          0   MPKI: 0
PSCL3 PREFETCH  REQUESTED:          0  ISSUED:          0  USEFUL:          0  USELESS:          0
PSCL3 USEFUL LOAD PREFETCHES:          0 PREFETCH ISSUED TO LOWER LEVEL:          0  ACCURACY: -nan
PSCL3 TIMELY PREFETCHES:          0 LATE PREFETCHES: 0 DROPPED PREFETCHES: 0
PSCL3 PREFETCHES SAME FILL-ORIGIN LEVEL: 0 DIFFERENT FILL-ORIGIN LEVEL: 0

PSCL2 TOTAL     ACCESS:      42533  HIT:      42304  MISS:        229  HIT %:    99.4616  MISS %:   0.538405   MPKI: 0.00458
PSCL2 LOAD TRANSLATION ACCESS:       7901  HIT:       7672  MISS:        229  HIT %:    97.1016  MISS %:    2.89837   MPKI: 0.00458
PSCL2 TRANSLATION FROM L1D PREFETCHER ACCESS:      34632  HIT:      34632  MISS:          0  HIT %:        100  MISS %:          0   MPKI: 0
PSCL2 PREFETCH  REQUESTED:          0  ISSUED:          0  USEFUL:          0  USELESS:          0
PSCL2 USEFUL LOAD PREFETCHES:          0 PREFETCH ISSUED TO LOWER LEVEL:          0  ACCURACY: -nan
PSCL2 TIMELY PREFETCHES:          0 LATE PREFETCHES: 0 DROPPED PREFETCHES: 0
PSCL2 PREFETCHES SAME FILL-ORIGIN LEVEL: 0 DIFFERENT FILL-ORIGIN LEVEL: 0

LLC TOTAL     ACCESS:    3409923  HIT:    1264015  MISS:    2145908  HIT %:    37.0687  MISS %:    62.9313   MPKI: 42.9182
LLC LOAD      ACCESS:     581244  HIT:     130817  MISS:     450427  HIT %:    22.5064  MISS %:    77.4936   MPKI: 9.00854
LLC RFO       ACCESS:     270208  HIT:      68004  MISS:     202204  HIT %:    25.1673  MISS %:    74.8327   MPKI: 4.04408
LLC PREFETCH  ACCESS:    1759192  HIT:     276045  MISS:    1483147  HIT %:    15.6916  MISS %:    84.3084   MPKI: 29.6629
AGUS PREFETCH L1 MISS: 0
LLC WRITEBACK ACCESS:     787812  HIT:     787634  MISS:        178  HIT %:    99.9774  MISS %:  0.0225942   MPKI: 0.00356
LLC LOAD TRANSLATION ACCESS:       2130  HIT:        136  MISS:       1994  HIT %:    6.38498  MISS %:     93.615   MPKI: 0.03988
LLC TRANSLATION FROM L1D PREFETCHER ACCESS:       9337  HIT:       1379  MISS:       7958  HIT %:    14.7692  MISS %:    85.2308   MPKI: 0.15916
LLC PREFETCH  REQUESTED:          0  ISSUED:          0  USEFUL:      70060  USELESS:    1438300
LLC USEFUL LOAD PREFETCHES:      70060 PREFETCH ISSUED TO LOWER LEVEL:    1483146  ACCURACY: 4.72374
LLC TIMELY PREFETCHES:      70060 LATE PREFETCHES: 0 DROPPED PREFETCHES: 0
LLC PREFETCHES SAME FILL-ORIGIN LEVEL: 0 DIFFERENT FILL-ORIGIN LEVEL: 0
LLC AVERAGE MISS LATENCY: 236.033 cycles
LLC RQ	ACCESS:     862933	FORWARD:          0	MERGED:          0	TO_CACHE:     862923
LLC WQ	ACCESS:     787813	FORWARD:         23	MERGED:          0	TO_CACHE:     787813
LLC PQ	ACCESS:    1759204	FORWARD:          0	MERGED:          0	TO_CACHE:    1759191

LLC Dense regions hint to LLC: 0

RAW hits: 148968
Loads Generated: 15008574
Loads sent to L1D: 14859603
Stores Generated: 3057587
Stores sent to L1D: 3057587
Major fault: 0 Minor fault: 7959
Allocated PAGES: 7959

stream: 
stream:times selected: 5596715
stream:pref_reqs: 5469245
stream:pref_reqs_filtered_out: 2121576
stream:pref_filled: 1797810
stream:pref_useful: 470030
stream:pref_late: 117270
stream:misses: 40150
stream:misses_by_poll: 0

CS: 
CS:times selected: 1771041
CS:pref_reqs: 5227970
CS:pref_reqs_filtered_out: 3310820
CS:pref_filled: 1402581
CS:pref_useful: 1132836
CS:pref_late: 79863
CS:misses: 53946
CS:misses_by_poll: 4912

CPLX: 
CPLX:times selected: 3804860
CPLX:pref_reqs: 557208
CPLX:pref_reqs_filtered_out: 411277
CPLX:pref_filled: 83425
CPLX:pref_useful: 28008
CPLX:pref_late: 6020
CPLX:misses: 208623
CPLX:misses_by_poll: 94

ISB: 
ISB:total access:16143154
ISB:times selected:10524430
ISB:canary counter:0
ISB:pref_reqs: 5863417
ISB:pref_reqs_filtered_out: 3432677
ISB:pref_filled: 1440319
ISB:pref_useful: 676421
ISB:pref_late: 75463
ISB:misses: 2048076
ISB:misses_by_poll: 5613
ISB:Stream end: 4666374
ISB:No Prediction: 5618724 34.8056
ISB:No translation: 455021244
ISB:Predictions: 2226815 13.7942

NL_L1: 
NL:times selected: 15547
NL:pref_reqs: 15547
NL:pref_reqs_filtered_out: 4337
NL:pref_filled: 6066
NL:pref_useful: 1412
NL:pref_late: 132
NL:misses: 7765
NL:misses_by_poll: 0

Coverage: 45.982
total selections: 21712593
total_filled: 2207592
total_useful: 1064160
total_late: 289430
total_polluted: 10619
total_misses_after_warmup: 1386447
conflicts: 171938

test: 0
ISB Prefetcher final stats
Prefetcher final stats
Training Unit Size: 1026
Addr table size: 180076 180129
Triggers: 16143154
Structural address exists: 10524430 65.1944
No Prediction: 5618724 34.8056
Prefetches issued: 2226815 13.7942
Stream end: 4666374
No translation: 455021244
%Stream divergence: 591228 3.66241
Stream divergence -- new stream: 0
A: 0
B: 0
C: 5596718
D: 5596718
E: 5596718
F: 0
G: 0

DRAM Statistics
 CHANNEL 0
 RQ ROW_BUFFER_HIT:     630031  ROW_BUFFER_MISS:    1515429
 DBUS_CONGESTED:        732
 WQ ROW_BUFFER_HIT:     147404  ROW_BUFFER_MISS:     502129  FULL:          0

 AVG_CONGESTED_CYCLE: 5
 All warmup complete: 2
Channel 0 Bank busy for read cycles: 0
Channel 0 Bank busy for write cycles: 0
Channel 0
Rank 0
0banks busy for read cycles: 15713289
0banks busy for write cycles: 26425
1banks busy for read cycles: 21244766
1banks busy for write cycles: 3982477
2banks busy for read cycles: 13594337
2banks busy for write cycles: 2053505
3banks busy for read cycles: 10675792
3banks busy for write cycles: 1291785
4banks busy for read cycles: 9726828
4banks busy for write cycles: 844779
5banks busy for read cycles: 8238703
5banks busy for write cycles: 594721
6banks busy for read cycles: 7149924
6banks busy for write cycles: 498352
7banks busy for read cycles: 5500419
7banks busy for write cycles: 1431440
8banks busy for read cycles: 3090076
8banks busy for write cycles: 12822564

CPU 0 Branch Prediction Accuracy: 94.9774% MPKI: 9.10314 Average ROB Occupancy at Mispredict: 44.6092
Branch types
NOT_BRANCH: 40937845 81.8757%
BRANCH_DIRECT_JUMP: 51581 0.103162%
BRANCH_INDIRECT: 18 3.6e-05%
BRANCH_CONDITIONAL: 9006978 18.014%
BRANCH_DIRECT_CALL: 1703 0.003406%
BRANCH_INDIRECT_CALL: 102 0.000204%
BRANCH_RETURN: 1801 0.003602%
BRANCH_OTHER: 0 0%

DRAM PAGES: 1048576
Allocated PAGES: 7959
