
*** ChampSim Multicore Out-of-Order Simulator ***

Warmup Instructions: 50000000
Simulation Instructions: 50000000
Number of CPUs: 1
LLC sets: 2048
LLC ways: 16
Off-chip DRAM Size: 4096 MB Channels: 1 Width: 64-bit Data Rate: 6400 MT/s
CPU 0 runs ./traces/SPEC-CPU2017/450.soplex-247B.champsimtrace.xz
.xz
CPU 0 Bimodal branch predictor
BTB has LRU replacement policy
ITLB has LRU replacement policy
DTLB has LRU replacement policy
STLB has LRU replacement policy
L1I has LRU replacement policy
L1D has LRU replacement policy
L2C has LRU replacement policy
LLC has LRU replacement policy
Heartbeat CPU 0 instructions: 10000002 cycles: 3566893 heartbeat IPC: 2.80356 cumulative IPC: 2.80356 (Simulation time: 0 hr 16 min 27 sec) 
Heartbeat CPU 0 instructions: 20000000 cycles: 6811223 heartbeat IPC: 3.0823 cumulative IPC: 2.93633 (Simulation time: 0 hr 35 min 7 sec) 
Heartbeat CPU 0 instructions: 30000002 cycles: 10036632 heartbeat IPC: 3.10038 cumulative IPC: 2.98905 (Simulation time: 0 hr 54 min 18 sec) 
Heartbeat CPU 0 instructions: 40000000 cycles: 13262885 heartbeat IPC: 3.09957 cumulative IPC: 3.01594 (Simulation time: 1 hr 7 min 46 sec) 
Heartbeat CPU 0 instructions: 50000000 cycles: 16480079 heartbeat IPC: 3.1083 cumulative IPC: 3.03397 (Simulation time: 1 hr 16 min 58 sec) 

Warmup complete CPU 0 instructions: 50000004 cycles: 16480080 (Simulation time: 1 hr 16 min 58 sec) 

Heartbeat CPU 0 instructions: 60000000 cycles: 39277500 heartbeat IPC: 0.438646 cumulative IPC: 0.438646 (Simulation time: 1 hr 21 min 35 sec) 
Heartbeat CPU 0 instructions: 70000002 cycles: 62950110 heartbeat IPC: 0.422429 cumulative IPC: 0.430385 (Simulation time: 1 hr 25 min 48 sec) 
Heartbeat CPU 0 instructions: 80000000 cycles: 86137261 heartbeat IPC: 0.431273 cumulative IPC: 0.430681 (Simulation time: 1 hr 30 min 4 sec) 
Heartbeat CPU 0 instructions: 90000002 cycles: 109995596 heartbeat IPC: 0.419141 cumulative IPC: 0.427736 (Simulation time: 1 hr 34 min 37 sec) 
Heartbeat CPU 0 instructions: 100000000 cycles: 132234178 heartbeat IPC: 0.449669 cumulative IPC: 0.43195 (Simulation time: 1 hr 38 min 58 sec) 
Finished CPU 0 instructions: 50000000 cycles: 115754106 cumulative IPC: 0.43195 (Simulation time: 1 hr 38 min 58 sec) 

ChampSim completed all CPUs

Region of Interest Statistics

CPU 0 cumulative IPC: 0.43195 instructions: 50000000 cycles: 115754106
ITLB TOTAL     ACCESS:    8577690  HIT:    8577690  MISS:          0  HIT %:        100  MISS %:          0   MPKI: 0
ITLB LOAD TRANSLATION ACCESS:    8577690  HIT:    8577690  MISS:          0  HIT %:        100  MISS %:          0   MPKI: 0
ITLB PREFETCH  REQUESTED:          0  ISSUED:          0  USEFUL:          0  USELESS:          0
ITLB USEFUL LOAD PREFETCHES:          0 PREFETCH ISSUED TO LOWER LEVEL:          0  ACCURACY: -nan
ITLB TIMELY PREFETCHES:          0 LATE PREFETCHES: 0 DROPPED PREFETCHES: 0
ITLB PREFETCHES SAME FILL-ORIGIN LEVEL: 0 DIFFERENT FILL-ORIGIN LEVEL: 0
ITLB AVERAGE MISS LATENCY: -nan cycles
ITLB RQ	ACCESS:    9591452	FORWARD:          0	MERGED:    1013762	TO_CACHE:    8577690

DTLB TOTAL     ACCESS:    9799101  HIT:    9525263  MISS:     273838  HIT %:    97.2055  MISS %:    2.79452   MPKI: 5.47676
DTLB LOAD TRANSLATION ACCESS:    9799101  HIT:    9525263  MISS:     273838  HIT %:    97.2055  MISS %:    2.79452   MPKI: 5.47676
DTLB PREFETCH  REQUESTED:          0  ISSUED:          0  USEFUL:          0  USELESS:          0
DTLB USEFUL LOAD PREFETCHES:          0 PREFETCH ISSUED TO LOWER LEVEL:          0  ACCURACY: -nan
DTLB TIMELY PREFETCHES:          0 LATE PREFETCHES: 0 DROPPED PREFETCHES: 0
DTLB PREFETCHES SAME FILL-ORIGIN LEVEL: 0 DIFFERENT FILL-ORIGIN LEVEL: 0
DTLB AVERAGE MISS LATENCY: 12.8266 cycles
DTLB RQ	ACCESS:   11056344	FORWARD:          0	MERGED:    1214807	TO_CACHE:    9841537

STLB TOTAL     ACCESS:    3236002  HIT:    3193052  MISS:      42950  HIT %:    98.6727  MISS %:    1.32726   MPKI: 0.859
STLB LOAD TRANSLATION ACCESS:     273838  HIT:     268442  MISS:       5396  HIT %:    98.0295  MISS %:    1.97051   MPKI: 0.10792
STLB TRANSLATION FROM L1D PREFETCHER ACCESS:    2962164  HIT:    2924610  MISS:      37554  HIT %:    98.7322  MISS %:    1.26779   MPKI: 0.75108
STLB PREFETCH  REQUESTED:          0  ISSUED:          0  USEFUL:      36949  USELESS:        611
STLB USEFUL LOAD PREFETCHES:      36949 PREFETCH ISSUED TO LOWER LEVEL:          0  ACCURACY: inf
STLB TIMELY PREFETCHES:      36949 LATE PREFETCHES: 103 DROPPED PREFETCHES: 0
STLB PREFETCHES SAME FILL-ORIGIN LEVEL: 0 DIFFERENT FILL-ORIGIN LEVEL: 0
STLB AVERAGE MISS LATENCY: 129.482 cycles
STLB RQ	ACCESS:    5312876	FORWARD:          0	MERGED:    2076228	TO_CACHE:    3236648

STLB Hit, L1D data hit: 0
STLB Hit, L2C data hit: 0
STLB Hit, LLC data hit: 0
STLB Hit, LLC data miss: 0
STLB STLB hints to L2: 0
L1D TOTAL     ACCESS:   14840107  HIT:   10881695  MISS:    3958412  HIT %:    73.3263  MISS %:    26.6737   MPKI: 79.1682
L1D LOAD      ACCESS:    7902523  HIT:    6753910  MISS:    1148613  HIT %:    85.4652  MISS %:    14.5348   MPKI: 22.9723
L1D RFO       ACCESS:    2174215  HIT:    1877447  MISS:     296768  HIT %:    86.3506  MISS %:    13.6494   MPKI: 5.93536
L1D PREFETCH  ACCESS:    4763369  HIT:    2250338  MISS:    2513031  HIT %:    47.2426  MISS %:    52.7574   MPKI: 50.2606
AGUS PREFETCH L1 MISS: 0
L1D PREFETCH  REQUESTED:   11481204  ISSUED:   10078620  USEFUL:    1174605  USELESS:    1338533
L1D USEFUL LOAD PREFETCHES:    1174605 PREFETCH ISSUED TO LOWER LEVEL:    2640028  ACCURACY: 44.4921
L1D TIMELY PREFETCHES:    1174605 LATE PREFETCHES: 126994 DROPPED PREFETCHES: 0
L1D PREFETCHES SAME FILL-ORIGIN LEVEL: 2640028 DIFFERENT FILL-ORIGIN LEVEL: 0
L1D AVERAGE MISS LATENCY: 164.113 cycles
L1D RQ	ACCESS:   14859239	FORWARD:          0	MERGED:    6839673	TO_CACHE:    8014467
L1D WQ	ACCESS:    3057587	FORWARD:       5544	MERGED:      15710	TO_CACHE:    3041877
L1D PQ	ACCESS:    5039582	FORWARD:          0	MERGED:         99	TO_CACHE:    5039038

L1D UNIQUE REGIONS ACCESSED: 0
L1D REGIONS CONFLICTS: 0
L1D Cross Page Prefetch Requests: 3604682
L1D Same Page Prefetch Requests: 6337447
L1D ROI Sum of L1D PQ occupancy: 118913519
L1D PREFETCHES PUSHED FROM L2C: 0
L1I TOTAL     ACCESS:    9591417  HIT:    9591307  MISS:        110  HIT %:    99.9989  MISS %: 0.00114686   MPKI: 0.0022
L1I LOAD      ACCESS:    9591417  HIT:    9591307  MISS:        110  HIT %:    99.9989  MISS %: 0.00114686   MPKI: 0.0022
L1I PREFETCH  REQUESTED:          0  ISSUED:          0  USEFUL:          0  USELESS:          0
L1I USEFUL LOAD PREFETCHES:          0 PREFETCH ISSUED TO LOWER LEVEL:          0  ACCURACY: -nan
L1I TIMELY PREFETCHES:          0 LATE PREFETCHES: 0 DROPPED PREFETCHES: 0
L1I PREFETCHES SAME FILL-ORIGIN LEVEL: 0 DIFFERENT FILL-ORIGIN LEVEL: 0
L1I AVERAGE MISS LATENCY: 244.345 cycles
L1I RQ	ACCESS:   13833148	FORWARD:          0	MERGED:    4241696	TO_CACHE:    9591452

BTB TOTAL     ACCESS:    6809348  HIT:    6808760  MISS:        588  HIT %:    99.9914  MISS %: 0.00863519   MPKI: 0.01176
BTB BRANCH_DIRECT_JUMP	ACCESS:      51581  HIT:      51508  MISS:         73
BTB BRANCH_INDIRECT	ACCESS:         18  HIT:         11  MISS:          7
BTB BRANCH_CONDITIONAL	ACCESS:    6754143  HIT:    6753939  MISS:        204
BTB BRANCH_DIRECT_CALL	ACCESS:       1703  HIT:       1632  MISS:         71
BTB BRANCH_INDIRECT_CALL	ACCESS:        102  HIT:         81  MISS:         21
BTB BRANCH_RETURN	ACCESS:       1801  HIT:       1589  MISS:        212
BTB BRANCH_OTHER ACCESS:          0  HIT:          0  MISS:          0

L2C TOTAL     ACCESS:    5092286  HIT:    2482720  MISS:    2609566  HIT %:    48.7545  MISS %:    51.2455   MPKI: 52.1913
L2C LOAD      ACCESS:    1021631  HIT:     463840  MISS:     557791  HIT %:    45.4019  MISS %:    54.5981   MPKI: 11.1558
L2C DATA LOAD MPKI: 11.1536
L2C INSTRUCTION LOAD MPKI: 0.0022
L2C RFO       ACCESS:     296763  HIT:      25828  MISS:     270935  HIT %:    8.70324  MISS %:    91.2968   MPKI: 5.4187
L2C PREFETCH  ACCESS:    2639896  HIT:     870913  MISS:    1768983  HIT %:    32.9904  MISS %:    67.0096   MPKI: 35.3797
AGUS PREFETCH L1 MISS: 0
L2C DATA PREFETCH MPKI: 35.3797
L2C INSTRUCTION PREFETCH MPKI: 0
L2C WRITEBACK ACCESS:    1090817  HIT:    1090775  MISS:         42  HIT %:    99.9961  MISS %: 0.00385033   MPKI: 0.00084
L2C LOAD TRANSLATION ACCESS:       5459  HIT:       3753  MISS:       1706  HIT %:    68.7489  MISS %:    31.2511   MPKI: 0.03412
L2C TRANSLATION FROM L1D PREFETCHER ACCESS:      37720  HIT:      27611  MISS:      10109  HIT %:    73.1999  MISS %:    26.8001   MPKI: 0.20218
L2C PREFETCH  REQUESTED:          0  ISSUED:          0  USEFUL:     145830  USELESS:    1640492
L2C USEFUL LOAD PREFETCHES:     145830 PREFETCH ISSUED TO LOWER LEVEL:    1768982  ACCURACY: 8.24372
L2C TIMELY PREFETCHES:     145830 LATE PREFETCHES: 0 DROPPED PREFETCHES: 0
L2C PREFETCHES SAME FILL-ORIGIN LEVEL: 0 DIFFERENT FILL-ORIGIN LEVEL: 0
L2C AVERAGE MISS LATENCY: 227.016 cycles
L2C RQ	ACCESS:    1361676	FORWARD:          0	MERGED:          0	TO_CACHE:    1361577
L2C WQ	ACCESS:    1090818	FORWARD:        232	MERGED:          0	TO_CACHE:    1090818
L2C PQ	ACCESS:    2640028	FORWARD:          0	MERGED:          0	TO_CACHE:    2639895

L2C Instructions Evicting Data 110
L2C Translations Evicting Data 11743
L2C Data Evicting Data 2585759
L2C Instructions Evicting Instructions 0
L2C Translations Evicting Instructions 0
L2C Data Evicting Instructions 107
L2C Instructions Evicting Translations 0
L2C Translations Evicting Translations 72
L2C Data Evicting Translations 11733
L2C Dense regions hint from L2: 0
PSCL5 TOTAL     ACCESS:      42950  HIT:      42950  MISS:          0  HIT %:        100  MISS %:          0   MPKI: 0
PSCL5 LOAD TRANSLATION ACCESS:       5293  HIT:       5293  MISS:          0  HIT %:        100  MISS %:          0   MPKI: 0
PSCL5 TRANSLATION FROM L1D PREFETCHER ACCESS:      37657  HIT:      37657  MISS:          0  HIT %:        100  MISS %:          0   MPKI: 0
PSCL5 PREFETCH  REQUESTED:          0  ISSUED:          0  USEFUL:          0  USELESS:          0
PSCL5 USEFUL LOAD PREFETCHES:          0 PREFETCH ISSUED TO LOWER LEVEL:          0  ACCURACY: -nan
PSCL5 TIMELY PREFETCHES:          0 LATE PREFETCHES: 0 DROPPED PREFETCHES: 0
PSCL5 PREFETCHES SAME FILL-ORIGIN LEVEL: 0 DIFFERENT FILL-ORIGIN LEVEL: 0

PSCL4 TOTAL     ACCESS:      42950  HIT:      42950  MISS:          0  HIT %:        100  MISS %:          0   MPKI: 0
PSCL4 LOAD TRANSLATION ACCESS:       5293  HIT:       5293  MISS:          0  HIT %:        100  MISS %:          0   MPKI: 0
PSCL4 TRANSLATION FROM L1D PREFETCHER ACCESS:      37657  HIT:      37657  MISS:          0  HIT %:        100  MISS %:          0   MPKI: 0
PSCL4 PREFETCH  REQUESTED:          0  ISSUED:          0  USEFUL:          0  USELESS:          0
PSCL4 USEFUL LOAD PREFETCHES:          0 PREFETCH ISSUED TO LOWER LEVEL:          0  ACCURACY: -nan
PSCL4 TIMELY PREFETCHES:          0 LATE PREFETCHES: 0 DROPPED PREFETCHES: 0
PSCL4 PREFETCHES SAME FILL-ORIGIN LEVEL: 0 DIFFERENT FILL-ORIGIN LEVEL: 0

PSCL3 TOTAL     ACCESS:      42950  HIT:      42950  MISS:          0  HIT %:        100  MISS %:          0   MPKI: 0
PSCL3 LOAD TRANSLATION ACCESS:       5293  HIT:       5293  MISS:          0  HIT %:        100  MISS %:          0   MPKI: 0
PSCL3 TRANSLATION FROM L1D PREFETCHER ACCESS:      37657  HIT:      37657  MISS:          0  HIT %:        100  MISS %:          0   MPKI: 0
PSCL3 PREFETCH  REQUESTED:          0  ISSUED:          0  USEFUL:          0  USELESS:          0
PSCL3 USEFUL LOAD PREFETCHES:          0 PREFETCH ISSUED TO LOWER LEVEL:          0  ACCURACY: -nan
PSCL3 TIMELY PREFETCHES:          0 LATE PREFETCHES: 0 DROPPED PREFETCHES: 0
PSCL3 PREFETCHES SAME FILL-ORIGIN LEVEL: 0 DIFFERENT FILL-ORIGIN LEVEL: 0

PSCL2 TOTAL     ACCESS:      42950  HIT:      42717  MISS:        233  HIT %:    99.4575  MISS %:   0.542491   MPKI: 0.00466
PSCL2 LOAD TRANSLATION ACCESS:       5356  HIT:       5123  MISS:        233  HIT %:    95.6497  MISS %:    4.35026   MPKI: 0.00466
PSCL2 TRANSLATION FROM L1D PREFETCHER ACCESS:      37594  HIT:      37594  MISS:          0  HIT %:        100  MISS %:          0   MPKI: 0
PSCL2 PREFETCH  REQUESTED:          0  ISSUED:          0  USEFUL:          0  USELESS:          0
PSCL2 USEFUL LOAD PREFETCHES:          0 PREFETCH ISSUED TO LOWER LEVEL:          0  ACCURACY: -nan
PSCL2 TIMELY PREFETCHES:          0 LATE PREFETCHES: 0 DROPPED PREFETCHES: 0
PSCL2 PREFETCHES SAME FILL-ORIGIN LEVEL: 0 DIFFERENT FILL-ORIGIN LEVEL: 0

LLC TOTAL     ACCESS:    3398239  HIT:    1301576  MISS:    2096663  HIT %:    38.3015  MISS %:    61.6985   MPKI: 41.9333
LLC LOAD      ACCESS:     557786  HIT:     137972  MISS:     419814  HIT %:    24.7357  MISS %:    75.2643   MPKI: 8.39628
LLC RFO       ACCESS:     270935  HIT:      69703  MISS:     201232  HIT %:    25.7268  MISS %:    74.2732   MPKI: 4.02464
LLC PREFETCH  ACCESS:    1768973  HIT:     303617  MISS:    1465356  HIT %:    17.1635  MISS %:    82.8365   MPKI: 29.3071
AGUS PREFETCH L1 MISS: 0
LLC WRITEBACK ACCESS:     788730  HIT:     788499  MISS:        231  HIT %:    99.9707  MISS %:  0.0292876   MPKI: 0.00462
LLC LOAD TRANSLATION ACCESS:       1706  HIT:         86  MISS:       1620  HIT %:    5.04103  MISS %:     94.959   MPKI: 0.0324
LLC TRANSLATION FROM L1D PREFETCHER ACCESS:      10109  HIT:       1699  MISS:       8410  HIT %:    16.8068  MISS %:    83.1932   MPKI: 0.1682
LLC PREFETCH  REQUESTED:          0  ISSUED:          0  USEFUL:      72942  USELESS:    1417427
LLC USEFUL LOAD PREFETCHES:      72942 PREFETCH ISSUED TO LOWER LEVEL:    1465355  ACCURACY: 4.97777
LLC TIMELY PREFETCHES:      72942 LATE PREFETCHES: 0 DROPPED PREFETCHES: 0
LLC PREFETCHES SAME FILL-ORIGIN LEVEL: 0 DIFFERENT FILL-ORIGIN LEVEL: 0
LLC AVERAGE MISS LATENCY: 245.206 cycles
LLC RQ	ACCESS:     840545	FORWARD:          0	MERGED:          0	TO_CACHE:     840540
LLC WQ	ACCESS:     788731	FORWARD:         15	MERGED:          0	TO_CACHE:     788731
LLC PQ	ACCESS:    1768982	FORWARD:          0	MERGED:          0	TO_CACHE:    1768972

LLC Dense regions hint to LLC: 0

RAW hits: 149332
Loads Generated: 15008574
Loads sent to L1D: 14859239
Stores Generated: 3057587
Stores sent to L1D: 3057587
Major fault: 0 Minor fault: 7959
Allocated PAGES: 7959

stream: 
stream:times selected: 5597551
stream:pref_reqs: 5469995
stream:pref_reqs_filtered_out: 2082257
stream:pref_filled: 1342063
stream:pref_useful: 315443
stream:pref_late: 65806
stream:misses: 315793
stream:misses_by_poll: 0

CS: 
CS:times selected: 1772958
CS:pref_reqs: 5233752
CS:pref_reqs_filtered_out: 3351745
CS:pref_filled: 1066157
CS:pref_useful: 867538
CS:pref_late: 47754
CS:misses: 176015
CS:misses_by_poll: 3831

CPLX: 
CPLX:times selected: 3803702
CPLX:pref_reqs: 551983
CPLX:pref_reqs_filtered_out: 410759
CPLX:pref_filled: 55062
CPLX:pref_useful: 15170
CPLX:pref_late: 3086
CPLX:misses: 1509514
CPLX:misses_by_poll: 96

ISB: 
ISB:total access:17179619
ISB:times selected:11023753
ISB:canary counter:0
ISB:pref_reqs: 21532996
ISB:pref_reqs_filtered_out: 13785715
ISB:pref_filled: 2776495
ISB:pref_useful: 1194422
ISB:pref_late: 41955
ISB:misses: 236407
ISB:misses_by_poll: 16149
ISB:Stream end: 9317939
ISB:No Prediction: 6155866 35.8324
ISB:No translation: 878254915 5112.19
ISB:Predictions: 5831620 33.945

NL_L1: 
NL:times selected: 16713
NL:pref_reqs: 16713
NL:pref_reqs_filtered_out: 4079
NL:pref_filled: 5907
NL:pref_useful: 1244
NL:pref_late: 114
NL:misses: 8576
NL:misses_by_poll: 0

Coverage: 50.5594
total selections: 22214677
total_filled: 2513031
total_useful: 1174605
total_late: 165335
total_polluted: 20076
total_misses_after_warmup: 1260556
conflicts: 172541

test: 0
Prefetcher final stats
Training Unit Size: 359
Addr table size: 187151 187243
Stream divergence: 556412 3.23879
Stream divergence -- new stream: 0
--------------------------Training unit table ------------------------

DRAM Statistics
 CHANNEL 0
 RQ ROW_BUFFER_HIT:     653980  ROW_BUFFER_MISS:    1442152
 DBUS_CONGESTED:        548
 WQ ROW_BUFFER_HIT:     141426  ROW_BUFFER_MISS:     504773  FULL:          0

 AVG_CONGESTED_CYCLE: 5
 All warmup complete: 2
Channel 0 Bank busy for read cycles: 0
Channel 0 Bank busy for write cycles: 0
Channel 0
Rank 0
0banks busy for read cycles: 17038195
0banks busy for write cycles: 28123
1banks busy for read cycles: 19894157
1banks busy for write cycles: 4031815
2banks busy for read cycles: 12564839
2banks busy for write cycles: 1995405
3banks busy for read cycles: 10238808
3banks busy for write cycles: 1205017
4banks busy for read cycles: 9497427
4banks busy for write cycles: 794768
5banks busy for read cycles: 8347509
5banks busy for write cycles: 565652
6banks busy for read cycles: 7267934
6banks busy for write cycles: 480803
7banks busy for read cycles: 5271097
7banks busy for write cycles: 1549729
8banks busy for read cycles: 2687601
8banks busy for write cycles: 12295228

CPU 0 Branch Prediction Accuracy: 94.9774% MPKI: 9.10314 Average ROB Occupancy at Mispredict: 44.4288
Branch types
NOT_BRANCH: 40937845 81.8757%
BRANCH_DIRECT_JUMP: 51581 0.103162%
BRANCH_INDIRECT: 18 3.6e-05%
BRANCH_CONDITIONAL: 9006978 18.014%
BRANCH_DIRECT_CALL: 1703 0.003406%
BRANCH_INDIRECT_CALL: 102 0.000204%
BRANCH_RETURN: 1801 0.003602%
BRANCH_OTHER: 0 0%

DRAM PAGES: 1048576
Allocated PAGES: 7959
