
*** ChampSim Multicore Out-of-Order Simulator ***

Warmup Instructions: 50000000
Simulation Instructions: 50000000
Number of CPUs: 1
LLC sets: 2048
LLC ways: 16
Off-chip DRAM Size: 4096 MB Channels: 1 Width: 64-bit Data Rate: 6400 MT/s
CPU 0 runs ./traces/SPEC-CPU2017/450.soplex-247B.champsimtrace.xz
.xz
CPU 0 Bimodal branch predictor
BTB has LRU replacement policy
ITLB has LRU replacement policy
DTLB has LRU replacement policy
STLB has LRU replacement policy
L1I has LRU replacement policy
L1D has LRU replacement policy
L2C has LRU replacement policy
LLC has LRU replacement policy
Heartbeat CPU 0 instructions: 10000002 cycles: 3558993 heartbeat IPC: 2.80978 cumulative IPC: 2.80978 (Simulation time: 0 hr 8 min 39 sec) 
Heartbeat CPU 0 instructions: 20000000 cycles: 6796632 heartbeat IPC: 3.08867 cumulative IPC: 2.94263 (Simulation time: 0 hr 17 min 7 sec) 
Heartbeat CPU 0 instructions: 30000001 cycles: 10015786 heartbeat IPC: 3.10641 cumulative IPC: 2.99527 (Simulation time: 0 hr 24 min 2 sec) 
Heartbeat CPU 0 instructions: 40000000 cycles: 13236823 heartbeat IPC: 3.10459 cumulative IPC: 3.02187 (Simulation time: 0 hr 31 min 10 sec) 
Heartbeat CPU 0 instructions: 50000000 cycles: 16450043 heartbeat IPC: 3.11214 cumulative IPC: 3.03951 (Simulation time: 0 hr 38 min 21 sec) 

Warmup complete CPU 0 instructions: 50000004 cycles: 16450044 (Simulation time: 0 hr 38 min 21 sec) 

Heartbeat CPU 0 instructions: 60000000 cycles: 39996881 heartbeat IPC: 0.424685 cumulative IPC: 0.424685 (Simulation time: 0 hr 43 min 27 sec) 
Heartbeat CPU 0 instructions: 70000000 cycles: 64729504 heartbeat IPC: 0.404324 cumulative IPC: 0.414255 (Simulation time: 0 hr 47 min 1 sec) 
Heartbeat CPU 0 instructions: 80000000 cycles: 88999807 heartbeat IPC: 0.412026 cumulative IPC: 0.413509 (Simulation time: 0 hr 51 min 2 sec) 
Heartbeat CPU 0 instructions: 90000002 cycles: 113831327 heartbeat IPC: 0.402714 cumulative IPC: 0.410757 (Simulation time: 0 hr 54 min 15 sec) 
Heartbeat CPU 0 instructions: 100000000 cycles: 137037180 heartbeat IPC: 0.430926 cumulative IPC: 0.414638 (Simulation time: 0 hr 57 min 23 sec) 
Finished CPU 0 instructions: 50000000 cycles: 120587144 cumulative IPC: 0.414638 (Simulation time: 0 hr 57 min 23 sec) 

ChampSim completed all CPUs

Region of Interest Statistics

CPU 0 cumulative IPC: 0.414638 instructions: 50000000 cycles: 120587144
ITLB TOTAL     ACCESS:    8594045  HIT:    8594045  MISS:          0  HIT %:        100  MISS %:          0   MPKI: 0
ITLB LOAD TRANSLATION ACCESS:    8594045  HIT:    8594045  MISS:          0  HIT %:        100  MISS %:          0   MPKI: 0
ITLB PREFETCH  REQUESTED:          0  ISSUED:          0  USEFUL:          0  USELESS:          0
ITLB USEFUL LOAD PREFETCHES:          0 PREFETCH ISSUED TO LOWER LEVEL:          0  ACCURACY: -nan
ITLB TIMELY PREFETCHES:          0 LATE PREFETCHES: 0 DROPPED PREFETCHES: 0
ITLB PREFETCHES SAME FILL-ORIGIN LEVEL: 0 DIFFERENT FILL-ORIGIN LEVEL: 0
ITLB AVERAGE MISS LATENCY: -nan cycles
ITLB RQ	ACCESS:    9608276	FORWARD:          0	MERGED:    1014231	TO_CACHE:    8594045

DTLB TOTAL     ACCESS:    9777162  HIT:    9503282  MISS:     273880  HIT %:    97.1988  MISS %:    2.80122   MPKI: 5.4776
DTLB LOAD TRANSLATION ACCESS:    9777162  HIT:    9503282  MISS:     273880  HIT %:    97.1988  MISS %:    2.80122   MPKI: 5.4776
DTLB PREFETCH  REQUESTED:          0  ISSUED:          0  USEFUL:          0  USELESS:          0
DTLB USEFUL LOAD PREFETCHES:          0 PREFETCH ISSUED TO LOWER LEVEL:          0  ACCURACY: -nan
DTLB TIMELY PREFETCHES:          0 LATE PREFETCHES: 0 DROPPED PREFETCHES: 0
DTLB PREFETCHES SAME FILL-ORIGIN LEVEL: 0 DIFFERENT FILL-ORIGIN LEVEL: 0
DTLB AVERAGE MISS LATENCY: 14.9246 cycles
DTLB RQ	ACCESS:   11047205	FORWARD:          0	MERGED:    1225958	TO_CACHE:    9821247

STLB TOTAL     ACCESS:    2689275  HIT:    2646684  MISS:      42591  HIT %:    98.4163  MISS %:    1.58374   MPKI: 0.85182
STLB LOAD TRANSLATION ACCESS:     273880  HIT:     261075  MISS:      12805  HIT %:    95.3246  MISS %:    4.67541   MPKI: 0.2561
STLB TRANSLATION FROM L1D PREFETCHER ACCESS:    2415395  HIT:    2385609  MISS:      29786  HIT %:    98.7668  MISS %:    1.23317   MPKI: 0.59572
STLB PREFETCH  REQUESTED:          0  ISSUED:          0  USEFUL:      29418  USELESS:        377
STLB USEFUL LOAD PREFETCHES:      29418 PREFETCH ISSUED TO LOWER LEVEL:          0  ACCURACY: inf
STLB TIMELY PREFETCHES:      29418 LATE PREFETCHES: 2074 DROPPED PREFETCHES: 0
STLB PREFETCHES SAME FILL-ORIGIN LEVEL: 0 DIFFERENT FILL-ORIGIN LEVEL: 0
STLB AVERAGE MISS LATENCY: 106.462 cycles
STLB RQ	ACCESS:    3762894	FORWARD:          0	MERGED:    1070671	TO_CACHE:    2692223

STLB Hit, L1D data hit: 0
STLB Hit, L2C data hit: 0
STLB Hit, LLC data hit: 0
STLB Hit, LLC data miss: 0
STLB STLB hints to L2: 0
L1D TOTAL     ACCESS:   13070932  HIT:    9365747  MISS:    3705185  HIT %:    71.6532  MISS %:    28.3468   MPKI: 74.1037
L1D LOAD      ACCESS:    7858203  HIT:    6544970  MISS:    1313233  HIT %:    83.2884  MISS %:    16.7116   MPKI: 26.2647
L1D RFO       ACCESS:    2174606  HIT:    1878161  MISS:     296445  HIT %:    86.3679  MISS %:    13.6321   MPKI: 5.9289
L1D PREFETCH  ACCESS:    3038123  HIT:     942616  MISS:    2095507  HIT %:    31.0263  MISS %:    68.9737   MPKI: 41.9101
AGUS PREFETCH L1 MISS: 0
L1D PREFETCH  REQUESTED:    7226847  ISSUED:    6978513  USEFUL:     999458  USELESS:    1096116
L1D USEFUL LOAD PREFETCHES:     999458 PREFETCH ISSUED TO LOWER LEVEL:    2340694  ACCURACY: 42.6992
L1D TIMELY PREFETCHES:     999458 LATE PREFETCHES: 245186 DROPPED PREFETCHES: 0
L1D PREFETCHES SAME FILL-ORIGIN LEVEL: 2340694 DIFFERENT FILL-ORIGIN LEVEL: 0
L1D AVERAGE MISS LATENCY: 168.213 cycles
L1D RQ	ACCESS:   14859571	FORWARD:          0	MERGED:    6849249	TO_CACHE:    8005271
L1D WQ	ACCESS:    3057587	FORWARD:       5536	MERGED:      15653	TO_CACHE:    3041934
L1D PQ	ACCESS:    3489499	FORWARD:          0	MERGED:          0	TO_CACHE:    3489014

L1D UNIQUE REGIONS ACCESSED: 0
L1D REGIONS CONFLICTS: 0
L1D Cross Page Prefetch Requests: 1017284
L1D Same Page Prefetch Requests: 6153578
L1D ROI Sum of L1D PQ occupancy: 76725424
L1D PREFETCHES PUSHED FROM L2C: 0
L1I TOTAL     ACCESS:    9608241  HIT:    9608131  MISS:        110  HIT %:    99.9989  MISS %: 0.00114485   MPKI: 0.0022
L1I LOAD      ACCESS:    9608241  HIT:    9608131  MISS:        110  HIT %:    99.9989  MISS %: 0.00114485   MPKI: 0.0022
L1I PREFETCH  REQUESTED:          0  ISSUED:          0  USEFUL:          0  USELESS:          0
L1I USEFUL LOAD PREFETCHES:          0 PREFETCH ISSUED TO LOWER LEVEL:          0  ACCURACY: -nan
L1I TIMELY PREFETCHES:          0 LATE PREFETCHES: 0 DROPPED PREFETCHES: 0
L1I PREFETCHES SAME FILL-ORIGIN LEVEL: 0 DIFFERENT FILL-ORIGIN LEVEL: 0
L1I AVERAGE MISS LATENCY: 235.536 cycles
L1I RQ	ACCESS:   13858581	FORWARD:          0	MERGED:    4250305	TO_CACHE:    9608276

BTB TOTAL     ACCESS:    6809348  HIT:    6808760  MISS:        588  HIT %:    99.9914  MISS %: 0.00863519   MPKI: 0.01176
BTB BRANCH_DIRECT_JUMP	ACCESS:      51581  HIT:      51508  MISS:         73
BTB BRANCH_INDIRECT	ACCESS:         18  HIT:         11  MISS:          7
BTB BRANCH_CONDITIONAL	ACCESS:    6754143  HIT:    6753939  MISS:        204
BTB BRANCH_DIRECT_CALL	ACCESS:       1703  HIT:       1632  MISS:         71
BTB BRANCH_INDIRECT_CALL	ACCESS:        102  HIT:         81  MISS:         21
BTB BRANCH_RETURN	ACCESS:       1801  HIT:       1589  MISS:        212
BTB BRANCH_OTHER ACCESS:          0  HIT:          0  MISS:          0

L2C TOTAL     ACCESS:    4832967  HIT:    2220805  MISS:    2612162  HIT %:    45.9512  MISS %:    54.0488   MPKI: 52.2432
L2C LOAD      ACCESS:    1068006  HIT:     447219  MISS:     620787  HIT %:    41.8742  MISS %:    58.1258   MPKI: 12.4157
L2C DATA LOAD MPKI: 12.4135
L2C INSTRUCTION LOAD MPKI: 0.0022
L2C RFO       ACCESS:     296437  HIT:      26413  MISS:     270024  HIT %:    8.91016  MISS %:    91.0898   MPKI: 5.40048
L2C PREFETCH  ACCESS:    2340598  HIT:     630694  MISS:    1709904  HIT %:    26.9458  MISS %:    73.0542   MPKI: 34.1981
AGUS PREFETCH L1 MISS: 0
L2C DATA PREFETCH MPKI: 34.1981
L2C INSTRUCTION PREFETCH MPKI: 0
L2C WRITEBACK ACCESS:    1085110  HIT:    1085065  MISS:         45  HIT %:    99.9959  MISS %: 0.00414705   MPKI: 0.0009
L2C LOAD TRANSLATION ACCESS:      10901  HIT:       8422  MISS:       2479  HIT %:     77.259  MISS %:     22.741   MPKI: 0.04958
L2C TRANSLATION FROM L1D PREFETCHER ACCESS:      31915  HIT:      22992  MISS:       8923  HIT %:    72.0414  MISS %:    27.9586   MPKI: 0.17846
L2C PREFETCH  REQUESTED:          0  ISSUED:          0  USEFUL:     134605  USELESS:    1591437
L2C USEFUL LOAD PREFETCHES:     134605 PREFETCH ISSUED TO LOWER LEVEL:    1709903  ACCURACY: 7.87208
L2C TIMELY PREFETCHES:     134605 LATE PREFETCHES: 0 DROPPED PREFETCHES: 0
L2C PREFETCHES SAME FILL-ORIGIN LEVEL: 0 DIFFERENT FILL-ORIGIN LEVEL: 0
L2C AVERAGE MISS LATENCY: 218.189 cycles
L2C RQ	ACCESS:    1407419	FORWARD:          0	MERGED:          0	TO_CACHE:    1407263
L2C WQ	ACCESS:    1085111	FORWARD:        253	MERGED:          0	TO_CACHE:    1085111
L2C PQ	ACCESS:    2340694	FORWARD:          0	MERGED:          0	TO_CACHE:    2340597

L2C Instructions Evicting Data 110
L2C Translations Evicting Data 11296
L2C Data Evicting Data 2589209
L2C Instructions Evicting Instructions 0
L2C Translations Evicting Instructions 0
L2C Data Evicting Instructions 107
L2C Instructions Evicting Translations 0
L2C Translations Evicting Translations 106
L2C Data Evicting Translations 11289
L2C Dense regions hint from L2: 0
PSCL5 TOTAL     ACCESS:      42591  HIT:      42591  MISS:          0  HIT %:        100  MISS %:          0   MPKI: 0
PSCL5 LOAD TRANSLATION ACCESS:      10731  HIT:      10731  MISS:          0  HIT %:        100  MISS %:          0   MPKI: 0
PSCL5 TRANSLATION FROM L1D PREFETCHER ACCESS:      31860  HIT:      31860  MISS:          0  HIT %:        100  MISS %:          0   MPKI: 0
PSCL5 PREFETCH  REQUESTED:          0  ISSUED:          0  USEFUL:          0  USELESS:          0
PSCL5 USEFUL LOAD PREFETCHES:          0 PREFETCH ISSUED TO LOWER LEVEL:          0  ACCURACY: -nan
PSCL5 TIMELY PREFETCHES:          0 LATE PREFETCHES: 0 DROPPED PREFETCHES: 0
PSCL5 PREFETCHES SAME FILL-ORIGIN LEVEL: 0 DIFFERENT FILL-ORIGIN LEVEL: 0

PSCL4 TOTAL     ACCESS:      42591  HIT:      42591  MISS:          0  HIT %:        100  MISS %:          0   MPKI: 0
PSCL4 LOAD TRANSLATION ACCESS:      10731  HIT:      10731  MISS:          0  HIT %:        100  MISS %:          0   MPKI: 0
PSCL4 TRANSLATION FROM L1D PREFETCHER ACCESS:      31860  HIT:      31860  MISS:          0  HIT %:        100  MISS %:          0   MPKI: 0
PSCL4 PREFETCH  REQUESTED:          0  ISSUED:          0  USEFUL:          0  USELESS:          0
PSCL4 USEFUL LOAD PREFETCHES:          0 PREFETCH ISSUED TO LOWER LEVEL:          0  ACCURACY: -nan
PSCL4 TIMELY PREFETCHES:          0 LATE PREFETCHES: 0 DROPPED PREFETCHES: 0
PSCL4 PREFETCHES SAME FILL-ORIGIN LEVEL: 0 DIFFERENT FILL-ORIGIN LEVEL: 0

PSCL3 TOTAL     ACCESS:      42591  HIT:      42591  MISS:          0  HIT %:        100  MISS %:          0   MPKI: 0
PSCL3 LOAD TRANSLATION ACCESS:      10731  HIT:      10731  MISS:          0  HIT %:        100  MISS %:          0   MPKI: 0
PSCL3 TRANSLATION FROM L1D PREFETCHER ACCESS:      31860  HIT:      31860  MISS:          0  HIT %:        100  MISS %:          0   MPKI: 0
PSCL3 PREFETCH  REQUESTED:          0  ISSUED:          0  USEFUL:          0  USELESS:          0
PSCL3 USEFUL LOAD PREFETCHES:          0 PREFETCH ISSUED TO LOWER LEVEL:          0  ACCURACY: -nan
PSCL3 TIMELY PREFETCHES:          0 LATE PREFETCHES: 0 DROPPED PREFETCHES: 0
PSCL3 PREFETCHES SAME FILL-ORIGIN LEVEL: 0 DIFFERENT FILL-ORIGIN LEVEL: 0

PSCL2 TOTAL     ACCESS:      42591  HIT:      42362  MISS:        229  HIT %:    99.4623  MISS %:   0.537672   MPKI: 0.00458
PSCL2 LOAD TRANSLATION ACCESS:      10786  HIT:      10557  MISS:        229  HIT %:    97.8769  MISS %:    2.12312   MPKI: 0.00458
PSCL2 TRANSLATION FROM L1D PREFETCHER ACCESS:      31805  HIT:      31805  MISS:          0  HIT %:        100  MISS %:          0   MPKI: 0
PSCL2 PREFETCH  REQUESTED:          0  ISSUED:          0  USEFUL:          0  USELESS:          0
PSCL2 USEFUL LOAD PREFETCHES:          0 PREFETCH ISSUED TO LOWER LEVEL:          0  ACCURACY: -nan
PSCL2 TIMELY PREFETCHES:          0 LATE PREFETCHES: 0 DROPPED PREFETCHES: 0
PSCL2 PREFETCHES SAME FILL-ORIGIN LEVEL: 0 DIFFERENT FILL-ORIGIN LEVEL: 0

LLC TOTAL     ACCESS:    3399509  HIT:    1257222  MISS:    2142287  HIT %:    36.9825  MISS %:    63.0175   MPKI: 42.8457
LLC LOAD      ACCESS:     620769  HIT:     131524  MISS:     489245  HIT %:    21.1873  MISS %:    78.8127   MPKI: 9.7849
LLC RFO       ACCESS:     270024  HIT:      67989  MISS:     202035  HIT %:    25.1789  MISS %:    74.8211   MPKI: 4.0407
LLC PREFETCH  ACCESS:    1709889  HIT:     269041  MISS:    1440848  HIT %:    15.7344  MISS %:    84.2656   MPKI: 28.817
AGUS PREFETCH L1 MISS: 0
LLC WRITEBACK ACCESS:     787425  HIT:     787223  MISS:        202  HIT %:    99.9743  MISS %:  0.0256532   MPKI: 0.00404
LLC LOAD TRANSLATION ACCESS:       2479  HIT:        183  MISS:       2296  HIT %:    7.38201  MISS %:     92.618   MPKI: 0.04592
LLC TRANSLATION FROM L1D PREFETCHER ACCESS:       8923  HIT:       1262  MISS:       7661  HIT %:    14.1432  MISS %:    85.8568   MPKI: 0.15322
LLC PREFETCH  REQUESTED:          0  ISSUED:          0  USEFUL:      68038  USELESS:    1397331
LLC USEFUL LOAD PREFETCHES:      68038 PREFETCH ISSUED TO LOWER LEVEL:    1440847  ACCURACY: 4.72208
LLC TIMELY PREFETCHES:      68038 LATE PREFETCHES: 0 DROPPED PREFETCHES: 0
LLC PREFETCHES SAME FILL-ORIGIN LEVEL: 0 DIFFERENT FILL-ORIGIN LEVEL: 0
LLC AVERAGE MISS LATENCY: 229.46 cycles
LLC RQ	ACCESS:     902217	FORWARD:          0	MERGED:          0	TO_CACHE:     902199
LLC WQ	ACCESS:     787426	FORWARD:         33	MERGED:          0	TO_CACHE:     787426
LLC PQ	ACCESS:    1709903	FORWARD:          0	MERGED:          0	TO_CACHE:    1709888

LLC Dense regions hint to LLC: 0

RAW hits: 149000
Loads Generated: 15008574
Loads sent to L1D: 14859571
Stores Generated: 3057587
Stores sent to L1D: 3057587
Major fault: 0 Minor fault: 7959
Allocated PAGES: 7959

stream: 
stream:times selected: 5597617
stream:pref_reqs: 5470346
stream:pref_reqs_filtered_out: 2103760
stream:pref_filled: 1839856
stream:pref_useful: 503218
stream:pref_late: 135280
stream:misses: 33665
stream:misses_by_poll: 0

CS: 
CS:times selected: 1774826
CS:pref_reqs: 5239000
CS:pref_reqs_filtered_out: 3286483
CS:pref_filled: 1478119
CS:pref_useful: 1202933
CS:pref_late: 87547
CS:misses: 16400
CS:misses_by_poll: 5218

CPLX: 
CPLX:times selected: 3802039
CPLX:pref_reqs: 560633
CPLX:pref_reqs_filtered_out: 410979
CPLX:pref_filled: 88037
CPLX:pref_useful: 31075
CPLX:pref_late: 7128
CPLX:misses: 168470
CPLX:misses_by_poll: 104

ISB: 
ISB:total access:16134162
ISB:times selected:13852532
ISB:canary counter:0
ISB:pref_reqs: 8591421
ISB:pref_reqs_filtered_out: 6453638
ISB:pref_filled: 1117498
ISB:pref_useful: 475179
ISB:pref_late: 75475
ISB:misses: 2237227
ISB:misses_by_poll: 4491
ISB:Stream end: 5272221
ISB:No Prediction: 2281630 14.1416
ISB:No translation: 970982907
ISB:Predictions: 1983131 12.2915

NL_L1: 
NL:times selected: 15376
NL:pref_reqs: 15376
NL:pref_reqs_filtered_out: 4258
NL:pref_filled: 6395
NL:pref_useful: 1463
NL:pref_late: 125
NL:misses: 7848
NL:misses_by_poll: 0

Coverage: 43.2162
total selections: 25042390
total_filled: 2095507
total_useful: 999458
total_late: 316455
total_polluted: 9813
total_misses_after_warmup: 1460300
conflicts: 171882

test: 0
ISB Prefetcher final stats
Prefetcher final stats
Training Unit Size: 2411
Addr table size: 240724 241931
Triggers: 16134162
Structural address exists: 13852532 85.8584
No Prediction: 2281630 14.1416
Prefetches issued: 1983131 12.2915
Stream end: 5272221
No translation: 970982907
%Stream divergence: 996262 6.17486
Stream divergence -- new stream: 0
A: 0
B: 0
C: 5597620
D: 5597620
E: 5597620
F: 0
G: 0

DRAM Statistics
 CHANNEL 0
 RQ ROW_BUFFER_HIT:     592542  ROW_BUFFER_MISS:    1549313
 DBUS_CONGESTED:        696
 WQ ROW_BUFFER_HIT:     154710  ROW_BUFFER_MISS:     494908  FULL:          0

 AVG_CONGESTED_CYCLE: 5
 All warmup complete: 2
Channel 0 Bank busy for read cycles: 0
Channel 0 Bank busy for write cycles: 0
Channel 0
Rank 0
0banks busy for read cycles: 16037295
0banks busy for write cycles: 26220
1banks busy for read cycles: 21802689
1banks busy for write cycles: 3942887
2banks busy for read cycles: 14161841
2banks busy for write cycles: 2050818
3banks busy for read cycles: 11027255
3banks busy for write cycles: 1258936
4banks busy for read cycles: 9807218
4banks busy for write cycles: 842352
5banks busy for read cycles: 8126880
5banks busy for write cycles: 618736
6banks busy for read cycles: 6948560
6banks busy for write cycles: 523261
7banks busy for read cycles: 5385993
7banks busy for write cycles: 1408069
8banks busy for read cycles: 3314089
8banks busy for write cycles: 13304046

CPU 0 Branch Prediction Accuracy: 94.9774% MPKI: 9.10314 Average ROB Occupancy at Mispredict: 44.5257
Branch types
NOT_BRANCH: 40937845 81.8757%
BRANCH_DIRECT_JUMP: 51581 0.103162%
BRANCH_INDIRECT: 18 3.6e-05%
BRANCH_CONDITIONAL: 9006978 18.014%
BRANCH_DIRECT_CALL: 1703 0.003406%
BRANCH_INDIRECT_CALL: 102 0.000204%
BRANCH_RETURN: 1801 0.003602%
BRANCH_OTHER: 0 0%

DRAM PAGES: 1048576
Allocated PAGES: 7959
