
*** ChampSim Multicore Out-of-Order Simulator ***

Warmup Instructions: 50000000
Simulation Instructions: 50000000
Number of CPUs: 1
LLC sets: 2048
LLC ways: 16
Off-chip DRAM Size: 4096 MB Channels: 1 Width: 64-bit Data Rate: 6400 MT/s
CPU 0 runs ./traces/SPEC-CPU2017/459.GemsFDTD-1169B.champsimtrace.xz
.xz
CPU 0 Bimodal branch predictor
BTB has LRU replacement policy
ITLB has LRU replacement policy
DTLB has LRU replacement policy
STLB has LRU replacement policy
L1I has LRU replacement policy
L1D has LRU replacement policy
L2C has LRU replacement policy
LLC has LRU replacement policy
Heartbeat CPU 0 instructions: 10000001 cycles: 3000403 heartbeat IPC: 3.33289 cumulative IPC: 3.33289 (Simulation time: 0 hr 0 min 49 sec) 
Heartbeat CPU 0 instructions: 20000000 cycles: 6955094 heartbeat IPC: 2.52864 cumulative IPC: 2.87559 (Simulation time: 0 hr 1 min 59 sec) 
Heartbeat CPU 0 instructions: 30000000 cycles: 11388467 heartbeat IPC: 2.25562 cumulative IPC: 2.63424 (Simulation time: 0 hr 3 min 19 sec) 
Heartbeat CPU 0 instructions: 40000000 cycles: 15833372 heartbeat IPC: 2.24977 cumulative IPC: 2.52631 (Simulation time: 0 hr 4 min 39 sec) 
Heartbeat CPU 0 instructions: 50000001 cycles: 20303140 heartbeat IPC: 2.23725 cumulative IPC: 2.46267 (Simulation time: 0 hr 5 min 59 sec) 

Warmup complete CPU 0 instructions: 50000001 cycles: 20303140 (Simulation time: 0 hr 5 min 59 sec) 

Heartbeat CPU 0 instructions: 60000000 cycles: 35491258 heartbeat IPC: 0.658409 cumulative IPC: 0.658409 (Simulation time: 0 hr 7 min 57 sec) 
Heartbeat CPU 0 instructions: 70000002 cycles: 49709996 heartbeat IPC: 0.703297 cumulative IPC: 0.680114 (Simulation time: 0 hr 9 min 36 sec) 
Heartbeat CPU 0 instructions: 80000000 cycles: 63630138 heartbeat IPC: 0.718383 cumulative IPC: 0.692409 (Simulation time: 0 hr 10 min 48 sec) 
Heartbeat CPU 0 instructions: 90000003 cycles: 77103458 heartbeat IPC: 0.742208 cumulative IPC: 0.704221 (Simulation time: 0 hr 11 min 53 sec) 
Heartbeat CPU 0 instructions: 100000000 cycles: 98113882 heartbeat IPC: 0.475954 cumulative IPC: 0.642585 (Simulation time: 0 hr 13 min 0 sec) 
Finished CPU 0 instructions: 50000003 cycles: 77810779 cumulative IPC: 0.642585 (Simulation time: 0 hr 13 min 0 sec) 

ChampSim completed all CPUs

Region of Interest Statistics

CPU 0 cumulative IPC: 0.642585 instructions: 50000003 cycles: 77810779
ITLB TOTAL     ACCESS:    7689852  HIT:    7689850  MISS:          2  HIT %:        100  MISS %: 2.60083e-05   MPKI: 4e-05
ITLB LOAD TRANSLATION ACCESS:    7689852  HIT:    7689850  MISS:          2  HIT %:        100  MISS %: 2.60083e-05   MPKI: 4e-05
ITLB PREFETCH  REQUESTED:          0  ISSUED:          0  USEFUL:          0  USELESS:          0
ITLB USEFUL LOAD PREFETCHES:          0 PREFETCH ISSUED TO LOWER LEVEL:          0  ACCURACY: -nan
ITLB TIMELY PREFETCHES:          0 LATE PREFETCHES: 0 DROPPED PREFETCHES: 0
ITLB PREFETCHES SAME FILL-ORIGIN LEVEL: 0 DIFFERENT FILL-ORIGIN LEVEL: 0
ITLB AVERAGE MISS LATENCY: 561 cycles
ITLB RQ	ACCESS:   10022343	FORWARD:          0	MERGED:    2332492	TO_CACHE:    7689851

DTLB TOTAL     ACCESS:   18466394  HIT:   17859634  MISS:     606760  HIT %:    96.7142  MISS %:    3.28575   MPKI: 12.1352
DTLB LOAD TRANSLATION ACCESS:   18466394  HIT:   17859634  MISS:     606760  HIT %:    96.7142  MISS %:    3.28575   MPKI: 12.1352
DTLB PREFETCH  REQUESTED:          0  ISSUED:          0  USEFUL:          0  USELESS:          0
DTLB USEFUL LOAD PREFETCHES:          0 PREFETCH ISSUED TO LOWER LEVEL:          0  ACCURACY: -nan
DTLB TIMELY PREFETCHES:          0 LATE PREFETCHES: 0 DROPPED PREFETCHES: 0
DTLB PREFETCHES SAME FILL-ORIGIN LEVEL: 0 DIFFERENT FILL-ORIGIN LEVEL: 0
DTLB AVERAGE MISS LATENCY: 13.5555 cycles
DTLB RQ	ACCESS:   22488451	FORWARD:          0	MERGED:    4022003	TO_CACHE:   18466448

STLB TOTAL     ACCESS:     606762  HIT:     529677  MISS:      77085  HIT %:    87.2957  MISS %:    12.7043   MPKI: 1.5417
STLB LOAD TRANSLATION ACCESS:     606762  HIT:     529677  MISS:      77085  HIT %:    87.2957  MISS %:    12.7043   MPKI: 1.5417
STLB PREFETCH  REQUESTED:          0  ISSUED:          0  USEFUL:          0  USELESS:          0
STLB USEFUL LOAD PREFETCHES:          0 PREFETCH ISSUED TO LOWER LEVEL:          0  ACCURACY: -nan
STLB TIMELY PREFETCHES:          0 LATE PREFETCHES: 0 DROPPED PREFETCHES: 0
STLB PREFETCHES SAME FILL-ORIGIN LEVEL: 0 DIFFERENT FILL-ORIGIN LEVEL: 0
STLB AVERAGE MISS LATENCY: 35.6985 cycles
STLB RQ	ACCESS:     606762	FORWARD:          0	MERGED:          0	TO_CACHE:     606762

STLB Hit, L1D data hit: 0
STLB Hit, L2C data hit: 0
STLB Hit, LLC data hit: 0
STLB Hit, LLC data miss: 0
STLB STLB hints to L2: 0
L1D TOTAL     ACCESS:   22431294  HIT:   20818523  MISS:    1612771  HIT %:    92.8102  MISS %:    7.18983   MPKI: 32.2554
L1D LOAD      ACCESS:   20745220  HIT:   19132449  MISS:    1612771  HIT %:    92.2258  MISS %:    7.77418   MPKI: 32.2554
L1D RFO       ACCESS:    1686074  HIT:    1686074  MISS:          0  HIT %:        100  MISS %:          0   MPKI: 0
L1D PREFETCH  REQUESTED:          0  ISSUED:          0  USEFUL:          0  USELESS:          0
L1D USEFUL LOAD PREFETCHES:          0 PREFETCH ISSUED TO LOWER LEVEL:          0  ACCURACY: -nan
L1D TIMELY PREFETCHES:          0 LATE PREFETCHES: 0 DROPPED PREFETCHES: 0
L1D PREFETCHES SAME FILL-ORIGIN LEVEL: 0 DIFFERENT FILL-ORIGIN LEVEL: 0
L1D AVERAGE MISS LATENCY: 38.3301 cycles
L1D RQ	ACCESS:   27022115	FORWARD:          0	MERGED:    6217354	TO_CACHE:   20802378
L1D WQ	ACCESS:    1686073	FORWARD:       2383	MERGED:          0	TO_CACHE:    1686073

L1D UNIQUE REGIONS ACCESSED: 0
L1D REGIONS CONFLICTS: 0
L1D Cross Page Prefetch Requests: 0
L1D Same Page Prefetch Requests: 0
L1D ROI Sum of L1D PQ occupancy: 0
L1D PREFETCHES PUSHED FROM L2C: 0
L1I TOTAL     ACCESS:   10022296  HIT:   10022213  MISS:         83  HIT %:    99.9992  MISS %: 0.000828154   MPKI: 0.00166
L1I LOAD      ACCESS:   10022296  HIT:   10022213  MISS:         83  HIT %:    99.9992  MISS %: 0.000828154   MPKI: 0.00166
L1I PREFETCH  REQUESTED:          0  ISSUED:          0  USEFUL:          0  USELESS:          0
L1I USEFUL LOAD PREFETCHES:          0 PREFETCH ISSUED TO LOWER LEVEL:          0  ACCURACY: -nan
L1I TIMELY PREFETCHES:          0 LATE PREFETCHES: 0 DROPPED PREFETCHES: 0
L1I PREFETCHES SAME FILL-ORIGIN LEVEL: 0 DIFFERENT FILL-ORIGIN LEVEL: 0
L1I AVERAGE MISS LATENCY: 202.361 cycles
L1I RQ	ACCESS:   13740046	FORWARD:          0	MERGED:    3717703	TO_CACHE:   10022343

BTB TOTAL     ACCESS:     119007  HIT:     118998  MISS:          9  HIT %:    99.9924  MISS %: 0.00756258   MPKI: 0.00018
BTB BRANCH_DIRECT_JUMP	ACCESS:        110  HIT:        108  MISS:          2
BTB BRANCH_INDIRECT	ACCESS:          0  HIT:          0  MISS:          0
BTB BRANCH_CONDITIONAL	ACCESS:     118897  HIT:     118890  MISS:          7
BTB BRANCH_DIRECT_CALL	ACCESS:          0  HIT:          0  MISS:          0
BTB BRANCH_INDIRECT_CALL	ACCESS:          0  HIT:          0  MISS:          0
BTB BRANCH_RETURN	ACCESS:          0  HIT:          0  MISS:          0
BTB BRANCH_OTHER ACCESS:          0  HIT:          0  MISS:          0

L2C TOTAL     ACCESS:    1904844  HIT:    1670731  MISS:     234113  HIT %:    87.7096  MISS %:    12.2904   MPKI: 4.68226
L2C LOAD      ACCESS:    1612854  HIT:    1383441  MISS:     229413  HIT %:     85.776  MISS %:     14.224   MPKI: 4.58826
L2C DATA LOAD MPKI: 4.5866
L2C INSTRUCTION LOAD MPKI: 0.00166
L2C WRITEBACK ACCESS:     191995  HIT:     191979  MISS:         16  HIT %:    99.9917  MISS %: 0.00833355   MPKI: 0.00032
L2C LOAD TRANSLATION ACCESS:      99995  HIT:      95311  MISS:       4684  HIT %:    95.3158  MISS %:    4.68423   MPKI: 0.09368
L2C PREFETCH  REQUESTED:          0  ISSUED:          0  USEFUL:          0  USELESS:          0
L2C USEFUL LOAD PREFETCHES:          0 PREFETCH ISSUED TO LOWER LEVEL:          0  ACCURACY: -nan
L2C TIMELY PREFETCHES:          0 LATE PREFETCHES: 0 DROPPED PREFETCHES: 0
L2C PREFETCHES SAME FILL-ORIGIN LEVEL: 0 DIFFERENT FILL-ORIGIN LEVEL: 0
L2C AVERAGE MISS LATENCY: 163.368 cycles
L2C RQ	ACCESS:    1712849	FORWARD:          0	MERGED:          0	TO_CACHE:    1712849
L2C WQ	ACCESS:     191995	FORWARD:          0	MERGED:          0	TO_CACHE:     191995

L2C Instructions Evicting Data 82
L2C Translations Evicting Data 4469
L2C Data Evicting Data 224316
L2C Instructions Evicting Instructions 0
L2C Translations Evicting Instructions 0
L2C Data Evicting Instructions 116
L2C Instructions Evicting Translations 1
L2C Translations Evicting Translations 215
L2C Data Evicting Translations 4898
L2C Dense regions hint from L2: 0
PSCL5 TOTAL     ACCESS:      77085  HIT:      77085  MISS:          0  HIT %:        100  MISS %:          0   MPKI: 0
PSCL5 LOAD TRANSLATION ACCESS:      77085  HIT:      77085  MISS:          0  HIT %:        100  MISS %:          0   MPKI: 0
PSCL5 PREFETCH  REQUESTED:          0  ISSUED:          0  USEFUL:          0  USELESS:          0
PSCL5 USEFUL LOAD PREFETCHES:          0 PREFETCH ISSUED TO LOWER LEVEL:          0  ACCURACY: -nan
PSCL5 TIMELY PREFETCHES:          0 LATE PREFETCHES: 0 DROPPED PREFETCHES: 0
PSCL5 PREFETCHES SAME FILL-ORIGIN LEVEL: 0 DIFFERENT FILL-ORIGIN LEVEL: 0

PSCL4 TOTAL     ACCESS:      77085  HIT:      77085  MISS:          0  HIT %:        100  MISS %:          0   MPKI: 0
PSCL4 LOAD TRANSLATION ACCESS:      77085  HIT:      77085  MISS:          0  HIT %:        100  MISS %:          0   MPKI: 0
PSCL4 PREFETCH  REQUESTED:          0  ISSUED:          0  USEFUL:          0  USELESS:          0
PSCL4 USEFUL LOAD PREFETCHES:          0 PREFETCH ISSUED TO LOWER LEVEL:          0  ACCURACY: -nan
PSCL4 TIMELY PREFETCHES:          0 LATE PREFETCHES: 0 DROPPED PREFETCHES: 0
PSCL4 PREFETCHES SAME FILL-ORIGIN LEVEL: 0 DIFFERENT FILL-ORIGIN LEVEL: 0

PSCL3 TOTAL     ACCESS:      77085  HIT:      77085  MISS:          0  HIT %:        100  MISS %:          0   MPKI: 0
PSCL3 LOAD TRANSLATION ACCESS:      77085  HIT:      77085  MISS:          0  HIT %:        100  MISS %:          0   MPKI: 0
PSCL3 PREFETCH  REQUESTED:          0  ISSUED:          0  USEFUL:          0  USELESS:          0
PSCL3 USEFUL LOAD PREFETCHES:          0 PREFETCH ISSUED TO LOWER LEVEL:          0  ACCURACY: -nan
PSCL3 TIMELY PREFETCHES:          0 LATE PREFETCHES: 0 DROPPED PREFETCHES: 0
PSCL3 PREFETCHES SAME FILL-ORIGIN LEVEL: 0 DIFFERENT FILL-ORIGIN LEVEL: 0

PSCL2 TOTAL     ACCESS:      77085  HIT:      54170  MISS:      22915  HIT %:    70.2731  MISS %:    29.7269   MPKI: 0.4583
PSCL2 LOAD TRANSLATION ACCESS:      77085  HIT:      54170  MISS:      22915  HIT %:    70.2731  MISS %:    29.7269   MPKI: 0.4583
PSCL2 PREFETCH  REQUESTED:          0  ISSUED:          0  USEFUL:          0  USELESS:          0
PSCL2 USEFUL LOAD PREFETCHES:          0 PREFETCH ISSUED TO LOWER LEVEL:          0  ACCURACY: -nan
PSCL2 TIMELY PREFETCHES:          0 LATE PREFETCHES: 0 DROPPED PREFETCHES: 0
PSCL2 PREFETCHES SAME FILL-ORIGIN LEVEL: 0 DIFFERENT FILL-ORIGIN LEVEL: 0

LLC TOTAL     ACCESS:     235940  HIT:       8914  MISS:     227026  HIT %:    3.77808  MISS %:    96.2219   MPKI: 4.54052
LLC LOAD      ACCESS:     229412  HIT:       6370  MISS:     223042  HIT %:    2.77666  MISS %:    97.2233   MPKI: 4.46084
LLC WRITEBACK ACCESS:       1844  HIT:        932  MISS:        912  HIT %:    50.5423  MISS %:    49.4577   MPKI: 0.01824
LLC LOAD TRANSLATION ACCESS:       4684  HIT:       1612  MISS:       3072  HIT %:     34.415  MISS %:     65.585   MPKI: 0.06144
LLC PREFETCH  REQUESTED:          0  ISSUED:          0  USEFUL:          0  USELESS:          0
LLC USEFUL LOAD PREFETCHES:          0 PREFETCH ISSUED TO LOWER LEVEL:          0  ACCURACY: -nan
LLC TIMELY PREFETCHES:          0 LATE PREFETCHES: 0 DROPPED PREFETCHES: 0
LLC PREFETCHES SAME FILL-ORIGIN LEVEL: 0 DIFFERENT FILL-ORIGIN LEVEL: 0
LLC AVERAGE MISS LATENCY: 137.356 cycles
LLC RQ	ACCESS:     234097	FORWARD:          0	MERGED:          0	TO_CACHE:     234096
LLC WQ	ACCESS:       1844	FORWARD:          1	MERGED:          0	TO_CACHE:       1844

LLC Dense regions hint to LLC: 0

RAW hits: 36461
Loads Generated: 27058577
Loads sent to L1D: 27022115
Stores Generated: 1686072
Stores sent to L1D: 1686073
Major fault: 0 Minor fault: 66998
Allocated PAGES: 66998

DRAM Statistics
 CHANNEL 0
 RQ ROW_BUFFER_HIT:      88849  ROW_BUFFER_MISS:     137265
 DBUS_CONGESTED:          3
 WQ ROW_BUFFER_HIT:        105  ROW_BUFFER_MISS:        888  FULL:          0

 AVG_CONGESTED_CYCLE: 6
 All warmup complete: 2
Channel 0 Bank busy for read cycles: 0
Channel 0 Bank busy for write cycles: 0
Channel 0
Rank 0
0banks busy for read cycles: 56010403
0banks busy for write cycles: 982
1banks busy for read cycles: 18385869
1banks busy for write cycles: 180340
2banks busy for read cycles: 3059447
2banks busy for write cycles: 1341
3banks busy for read cycles: 162804
3banks busy for write cycles: 0
4banks busy for read cycles: 8907
4banks busy for write cycles: 0
5banks busy for read cycles: 651
5banks busy for write cycles: 0
6banks busy for read cycles: 36
6banks busy for write cycles: 0
7banks busy for read cycles: 0
7banks busy for write cycles: 0
8banks busy for read cycles: 0
8banks busy for write cycles: 0

CPU 0 Branch Prediction Accuracy: 99.4456% MPKI: 0.01328 Average ROB Occupancy at Mispredict: 244.747
Branch types
NOT_BRANCH: 49880235 99.7605%
BRANCH_DIRECT_JUMP: 110 0.00022%
BRANCH_INDIRECT: 0 0%
BRANCH_CONDITIONAL: 119662 0.239324%
BRANCH_DIRECT_CALL: 0 0%
BRANCH_INDIRECT_CALL: 0 0%
BRANCH_RETURN: 0 0%
BRANCH_OTHER: 0 0%

DRAM PAGES: 1048576
Allocated PAGES: 66998
