
*** ChampSim Multicore Out-of-Order Simulator ***

Warmup Instructions: 50000000
Simulation Instructions: 50000000
Number of CPUs: 1
LLC sets: 2048
LLC ways: 16
Off-chip DRAM Size: 4096 MB Channels: 1 Width: 64-bit Data Rate: 6400 MT/s
CPU 0 runs ./traces/SPEC-CPU2017/459.GemsFDTD-1169B.champsimtrace.xz
.xz
CPU 0 Bimodal branch predictor
BTB has LRU replacement policy
ITLB has LRU replacement policy
DTLB has LRU replacement policy
STLB has LRU replacement policy
L1I has LRU replacement policy
L1D has LRU replacement policy
L2C has LRU replacement policy
LLC has LRU replacement policy
Heartbeat CPU 0 instructions: 10000001 cycles: 2998133 heartbeat IPC: 3.33541 cumulative IPC: 3.33541 (Simulation time: 0 hr 8 min 37 sec) 
Heartbeat CPU 0 instructions: 20000000 cycles: 6950341 heartbeat IPC: 2.53023 cumulative IPC: 2.87756 (Simulation time: 0 hr 27 min 36 sec) 
Heartbeat CPU 0 instructions: 30000000 cycles: 11374128 heartbeat IPC: 2.26051 cumulative IPC: 2.63756 (Simulation time: 0 hr 50 min 37 sec) 
Heartbeat CPU 0 instructions: 40000000 cycles: 15804576 heartbeat IPC: 2.25711 cumulative IPC: 2.53091 (Simulation time: 1 hr 6 min 52 sec) 
Heartbeat CPU 0 instructions: 50000002 cycles: 20259410 heartbeat IPC: 2.24475 cumulative IPC: 2.46799 (Simulation time: 1 hr 17 min 3 sec) 

Warmup complete CPU 0 instructions: 50000002 cycles: 20259410 (Simulation time: 1 hr 17 min 3 sec) 

Heartbeat CPU 0 instructions: 60000000 cycles: 33880628 heartbeat IPC: 0.734149 cumulative IPC: 0.734149 (Simulation time: 1 hr 19 min 21 sec) 
Heartbeat CPU 0 instructions: 70000003 cycles: 47134528 heartbeat IPC: 0.754495 cumulative IPC: 0.744183 (Simulation time: 1 hr 20 min 41 sec) 
Heartbeat CPU 0 instructions: 80000000 cycles: 60106983 heartbeat IPC: 0.770864 cumulative IPC: 0.752869 (Simulation time: 1 hr 21 min 55 sec) 
Heartbeat CPU 0 instructions: 90000003 cycles: 72473376 heartbeat IPC: 0.808643 cumulative IPC: 0.766079 (Simulation time: 1 hr 23 min 24 sec) 
Heartbeat CPU 0 instructions: 100000000 cycles: 91825907 heartbeat IPC: 0.516728 cumulative IPC: 0.698651 (Simulation time: 1 hr 24 min 53 sec) 
Finished CPU 0 instructions: 50000002 cycles: 71566534 cumulative IPC: 0.698651 (Simulation time: 1 hr 24 min 53 sec) 

ChampSim completed all CPUs

Region of Interest Statistics

CPU 0 cumulative IPC: 0.698651 instructions: 50000002 cycles: 71566534
ITLB TOTAL     ACCESS:    7574290  HIT:    7574288  MISS:          2  HIT %:        100  MISS %: 2.64051e-05   MPKI: 4e-05
ITLB LOAD TRANSLATION ACCESS:    7574290  HIT:    7574288  MISS:          2  HIT %:        100  MISS %: 2.64051e-05   MPKI: 4e-05
ITLB PREFETCH  REQUESTED:          0  ISSUED:          0  USEFUL:          0  USELESS:          0
ITLB USEFUL LOAD PREFETCHES:          0 PREFETCH ISSUED TO LOWER LEVEL:          0  ACCURACY: -nan
ITLB TIMELY PREFETCHES:          0 LATE PREFETCHES: 0 DROPPED PREFETCHES: 0
ITLB PREFETCHES SAME FILL-ORIGIN LEVEL: 0 DIFFERENT FILL-ORIGIN LEVEL: 0
ITLB AVERAGE MISS LATENCY: 561 cycles
ITLB RQ	ACCESS:    9927447	FORWARD:          0	MERGED:    2353158	TO_CACHE:    7574289

DTLB TOTAL     ACCESS:   18441639  HIT:   17834800  MISS:     606839  HIT %:    96.7094  MISS %:    3.29059   MPKI: 12.1368
DTLB LOAD TRANSLATION ACCESS:   18441639  HIT:   17834800  MISS:     606839  HIT %:    96.7094  MISS %:    3.29059   MPKI: 12.1368
DTLB PREFETCH  REQUESTED:          0  ISSUED:          0  USEFUL:          0  USELESS:          0
DTLB USEFUL LOAD PREFETCHES:          0 PREFETCH ISSUED TO LOWER LEVEL:          0  ACCURACY: -nan
DTLB TIMELY PREFETCHES:          0 LATE PREFETCHES: 0 DROPPED PREFETCHES: 0
DTLB PREFETCHES SAME FILL-ORIGIN LEVEL: 0 DIFFERENT FILL-ORIGIN LEVEL: 0
DTLB AVERAGE MISS LATENCY: 13.0461 cycles
DTLB RQ	ACCESS:   22463101	FORWARD:          0	MERGED:    4021416	TO_CACHE:   18441685

STLB TOTAL     ACCESS:    1430618  HIT:    1358866  MISS:      71752  HIT %:    94.9845  MISS %:    5.01545   MPKI: 1.43504
STLB LOAD TRANSLATION ACCESS:     606841  HIT:     547305  MISS:      59536  HIT %:    90.1892  MISS %:    9.81081   MPKI: 1.19072
STLB TRANSLATION FROM L1D PREFETCHER ACCESS:     823777  HIT:     811561  MISS:      12216  HIT %:    98.5171  MISS %:    1.48293   MPKI: 0.24432
STLB PREFETCH  REQUESTED:          0  ISSUED:          0  USEFUL:      12062  USELESS:        156
STLB USEFUL LOAD PREFETCHES:      12062 PREFETCH ISSUED TO LOWER LEVEL:          0  ACCURACY: inf
STLB TIMELY PREFETCHES:      12062 LATE PREFETCHES: 0 DROPPED PREFETCHES: 0
STLB PREFETCHES SAME FILL-ORIGIN LEVEL: 0 DIFFERENT FILL-ORIGIN LEVEL: 0
STLB AVERAGE MISS LATENCY: 43.3402 cycles
STLB RQ	ACCESS:    1849064	FORWARD:          0	MERGED:     418446	TO_CACHE:    1430618

STLB Hit, L1D data hit: 0
STLB Hit, L2C data hit: 0
STLB Hit, LLC data hit: 0
STLB Hit, LLC data miss: 0
STLB STLB hints to L2: 0
L1D TOTAL     ACCESS:   23659359  HIT:   21417571  MISS:    2241788  HIT %:    90.5247  MISS %:    9.47527   MPKI: 44.8358
L1D LOAD      ACCESS:   20732428  HIT:   19468195  MISS:    1264233  HIT %:    93.9021  MISS %:    6.09785   MPKI: 25.2847
L1D RFO       ACCESS:    1686074  HIT:    1686074  MISS:          0  HIT %:        100  MISS %:          0   MPKI: 0
L1D PREFETCH  ACCESS:    1240857  HIT:     263302  MISS:     977555  HIT %:    21.2194  MISS %:    78.7806   MPKI: 19.5511
AGUS PREFETCH L1 MISS: 0
L1D PREFETCH  REQUESTED:    2501883  ISSUED:    2484504  USEFUL:     348500  USELESS:     629144
L1D USEFUL LOAD PREFETCHES:     348500 PREFETCH ISSUED TO LOWER LEVEL:     978875  ACCURACY: 35.6021
L1D TIMELY PREFETCHES:     348500 LATE PREFETCHES: 1320 DROPPED PREFETCHES: 0
L1D PREFETCHES SAME FILL-ORIGIN LEVEL: 978875 DIFFERENT FILL-ORIGIN LEVEL: 0
L1D AVERAGE MISS LATENCY: 39.6877 cycles
L1D RQ	ACCESS:   27021910	FORWARD:          0	MERGED:    6242402	TO_CACHE:   20777028
L1D WQ	ACCESS:    1686073	FORWARD:       2538	MERGED:          0	TO_CACHE:    1686073
L1D PQ	ACCESS:    1242281	FORWARD:          0	MERGED:          0	TO_CACHE:    1242223

L1D UNIQUE REGIONS ACCESSED: 0
L1D REGIONS CONFLICTS: 0
L1D Cross Page Prefetch Requests: 658319
L1D Same Page Prefetch Requests: 2033311
L1D ROI Sum of L1D PQ occupancy: 19240262
L1D PREFETCHES PUSHED FROM L2C: 0
L1I TOTAL     ACCESS:    9927401  HIT:    9927318  MISS:         83  HIT %:    99.9992  MISS %: 0.00083607   MPKI: 0.00166
L1I LOAD      ACCESS:    9927401  HIT:    9927318  MISS:         83  HIT %:    99.9992  MISS %: 0.00083607   MPKI: 0.00166
L1I PREFETCH  REQUESTED:          0  ISSUED:          0  USEFUL:          0  USELESS:          0
L1I USEFUL LOAD PREFETCHES:          0 PREFETCH ISSUED TO LOWER LEVEL:          0  ACCURACY: -nan
L1I TIMELY PREFETCHES:          0 LATE PREFETCHES: 0 DROPPED PREFETCHES: 0
L1I PREFETCHES SAME FILL-ORIGIN LEVEL: 0 DIFFERENT FILL-ORIGIN LEVEL: 0
L1I AVERAGE MISS LATENCY: 203.301 cycles
L1I RQ	ACCESS:   13595213	FORWARD:          0	MERGED:    3667766	TO_CACHE:    9927447

BTB TOTAL     ACCESS:     119007  HIT:     118998  MISS:          9  HIT %:    99.9924  MISS %: 0.00756258   MPKI: 0.00018
BTB BRANCH_DIRECT_JUMP	ACCESS:        110  HIT:        108  MISS:          2
BTB BRANCH_INDIRECT	ACCESS:          0  HIT:          0  MISS:          0
BTB BRANCH_CONDITIONAL	ACCESS:     118897  HIT:     118890  MISS:          7
BTB BRANCH_DIRECT_CALL	ACCESS:          0  HIT:          0  MISS:          0
BTB BRANCH_INDIRECT_CALL	ACCESS:          0  HIT:          0  MISS:          0
BTB BRANCH_RETURN	ACCESS:          0  HIT:          0  MISS:          0
BTB BRANCH_OTHER ACCESS:          0  HIT:          0  MISS:          0

L2C TOTAL     ACCESS:    2528061  HIT:    2153409  MISS:     374652  HIT %:    85.1803  MISS %:    14.8197   MPKI: 7.49304
L2C LOAD      ACCESS:    1262996  HIT:    1084628  MISS:     178368  HIT %:    85.8774  MISS %:    14.1226   MPKI: 3.56736
L2C DATA LOAD MPKI: 3.5657
L2C INSTRUCTION LOAD MPKI: 0.00166
L2C PREFETCH  ACCESS:     978869  HIT:     791784  MISS:     187085  HIT %:    80.8876  MISS %:    19.1124   MPKI: 3.7417
AGUS PREFETCH L1 MISS: 0
L2C DATA PREFETCH MPKI: 3.7417
L2C INSTRUCTION PREFETCH MPKI: 0
L2C WRITEBACK ACCESS:     191982  HIT:     191965  MISS:         17  HIT %:    99.9911  MISS %:   0.008855   MPKI: 0.00034
L2C LOAD TRANSLATION ACCESS:      78198  HIT:      70370  MISS:       7828  HIT %:    89.9895  MISS %:    10.0105   MPKI: 0.15656
L2C TRANSLATION FROM L1D PREFETCHER ACCESS:      16016  HIT:      14662  MISS:       1354  HIT %:     91.546  MISS %:    8.45405   MPKI: 0.02708
L2C PREFETCH  REQUESTED:          0  ISSUED:          0  USEFUL:      55485  USELESS:     132543
L2C USEFUL LOAD PREFETCHES:      55485 PREFETCH ISSUED TO LOWER LEVEL:     187085  ACCURACY: 29.6576
L2C TIMELY PREFETCHES:      55485 LATE PREFETCHES: 0 DROPPED PREFETCHES: 0
L2C PREFETCHES SAME FILL-ORIGIN LEVEL: 0 DIFFERENT FILL-ORIGIN LEVEL: 0
L2C AVERAGE MISS LATENCY: 149.045 cycles
L2C RQ	ACCESS:    1357210	FORWARD:          0	MERGED:          0	TO_CACHE:    1357210
L2C WQ	ACCESS:     191982	FORWARD:          6	MERGED:          0	TO_CACHE:     191982
L2C PQ	ACCESS:     978875	FORWARD:          0	MERGED:          0	TO_CACHE:     978869

L2C Instructions Evicting Data 82
L2C Translations Evicting Data 8626
L2C Data Evicting Data 356206
L2C Instructions Evicting Instructions 0
L2C Translations Evicting Instructions 0
L2C Data Evicting Instructions 116
L2C Instructions Evicting Translations 1
L2C Translations Evicting Translations 556
L2C Data Evicting Translations 9048
L2C Dense regions hint from L2: 0
PSCL5 TOTAL     ACCESS:      71752  HIT:      71752  MISS:          0  HIT %:        100  MISS %:          0   MPKI: 0
PSCL5 LOAD TRANSLATION ACCESS:      59536  HIT:      59536  MISS:          0  HIT %:        100  MISS %:          0   MPKI: 0
PSCL5 TRANSLATION FROM L1D PREFETCHER ACCESS:      12216  HIT:      12216  MISS:          0  HIT %:        100  MISS %:          0   MPKI: 0
PSCL5 PREFETCH  REQUESTED:          0  ISSUED:          0  USEFUL:          0  USELESS:          0
PSCL5 USEFUL LOAD PREFETCHES:          0 PREFETCH ISSUED TO LOWER LEVEL:          0  ACCURACY: -nan
PSCL5 TIMELY PREFETCHES:          0 LATE PREFETCHES: 0 DROPPED PREFETCHES: 0
PSCL5 PREFETCHES SAME FILL-ORIGIN LEVEL: 0 DIFFERENT FILL-ORIGIN LEVEL: 0

PSCL4 TOTAL     ACCESS:      71752  HIT:      71752  MISS:          0  HIT %:        100  MISS %:          0   MPKI: 0
PSCL4 LOAD TRANSLATION ACCESS:      59536  HIT:      59536  MISS:          0  HIT %:        100  MISS %:          0   MPKI: 0
PSCL4 TRANSLATION FROM L1D PREFETCHER ACCESS:      12216  HIT:      12216  MISS:          0  HIT %:        100  MISS %:          0   MPKI: 0
PSCL4 PREFETCH  REQUESTED:          0  ISSUED:          0  USEFUL:          0  USELESS:          0
PSCL4 USEFUL LOAD PREFETCHES:          0 PREFETCH ISSUED TO LOWER LEVEL:          0  ACCURACY: -nan
PSCL4 TIMELY PREFETCHES:          0 LATE PREFETCHES: 0 DROPPED PREFETCHES: 0
PSCL4 PREFETCHES SAME FILL-ORIGIN LEVEL: 0 DIFFERENT FILL-ORIGIN LEVEL: 0

PSCL3 TOTAL     ACCESS:      71752  HIT:      71752  MISS:          0  HIT %:        100  MISS %:          0   MPKI: 0
PSCL3 LOAD TRANSLATION ACCESS:      59536  HIT:      59536  MISS:          0  HIT %:        100  MISS %:          0   MPKI: 0
PSCL3 TRANSLATION FROM L1D PREFETCHER ACCESS:      12216  HIT:      12216  MISS:          0  HIT %:        100  MISS %:          0   MPKI: 0
PSCL3 PREFETCH  REQUESTED:          0  ISSUED:          0  USEFUL:          0  USELESS:          0
PSCL3 USEFUL LOAD PREFETCHES:          0 PREFETCH ISSUED TO LOWER LEVEL:          0  ACCURACY: -nan
PSCL3 TIMELY PREFETCHES:          0 LATE PREFETCHES: 0 DROPPED PREFETCHES: 0
PSCL3 PREFETCHES SAME FILL-ORIGIN LEVEL: 0 DIFFERENT FILL-ORIGIN LEVEL: 0

PSCL2 TOTAL     ACCESS:      71752  HIT:      49285  MISS:      22467  HIT %:     68.688  MISS %:     31.312   MPKI: 0.44934
PSCL2 LOAD TRANSLATION ACCESS:      63336  HIT:      40869  MISS:      22467  HIT %:    64.5273  MISS %:    35.4727   MPKI: 0.44934
PSCL2 TRANSLATION FROM L1D PREFETCHER ACCESS:       8416  HIT:       8416  MISS:          0  HIT %:        100  MISS %:          0   MPKI: 0
PSCL2 PREFETCH  REQUESTED:          0  ISSUED:          0  USEFUL:          0  USELESS:          0
PSCL2 USEFUL LOAD PREFETCHES:          0 PREFETCH ISSUED TO LOWER LEVEL:          0  ACCURACY: -nan
PSCL2 TIMELY PREFETCHES:          0 LATE PREFETCHES: 0 DROPPED PREFETCHES: 0
PSCL2 PREFETCHES SAME FILL-ORIGIN LEVEL: 0 DIFFERENT FILL-ORIGIN LEVEL: 0

LLC TOTAL     ACCESS:     381582  HIT:      85647  MISS:     295935  HIT %:    22.4452  MISS %:    77.5548   MPKI: 5.9187
LLC LOAD      ACCESS:     178366  HIT:      29882  MISS:     148484  HIT %:    16.7532  MISS %:    83.2468   MPKI: 2.96968
LLC PREFETCH  ACCESS:     187084  HIT:      44284  MISS:     142800  HIT %:    23.6707  MISS %:    76.3293   MPKI: 2.856
AGUS PREFETCH L1 MISS: 0
LLC WRITEBACK ACCESS:       6950  HIT:       5606  MISS:       1344  HIT %:    80.6619  MISS %:    19.3381   MPKI: 0.02688
LLC LOAD TRANSLATION ACCESS:       7828  HIT:       5133  MISS:       2695  HIT %:    65.5723  MISS %:    34.4277   MPKI: 0.0539
LLC TRANSLATION FROM L1D PREFETCHER ACCESS:       1354  HIT:        742  MISS:        612  HIT %:    54.8006  MISS %:    45.1994   MPKI: 0.01224
LLC PREFETCH  REQUESTED:          0  ISSUED:          0  USEFUL:       8250  USELESS:     134892
LLC USEFUL LOAD PREFETCHES:       8250 PREFETCH ISSUED TO LOWER LEVEL:     142800  ACCURACY: 5.77731
LLC TIMELY PREFETCHES:       8250 LATE PREFETCHES: 0 DROPPED PREFETCHES: 0
LLC PREFETCHES SAME FILL-ORIGIN LEVEL: 0 DIFFERENT FILL-ORIGIN LEVEL: 0
LLC AVERAGE MISS LATENCY: 150.517 cycles
LLC RQ	ACCESS:     187550	FORWARD:          0	MERGED:          0	TO_CACHE:     187548
LLC WQ	ACCESS:       6950	FORWARD:          3	MERGED:          0	TO_CACHE:       6950
LLC PQ	ACCESS:     187085	FORWARD:          0	MERGED:          0	TO_CACHE:     187084

LLC Dense regions hint to LLC: 0

RAW hits: 36668
Loads Generated: 27058579
Loads sent to L1D: 27021910
Stores Generated: 1686072
Stores sent to L1D: 1686073
Major fault: 0 Minor fault: 66998
Allocated PAGES: 66998

stream: 
stream:times selected: 1216504
stream:pref_reqs: 1587090
stream:pref_reqs_filtered_out: 424414
stream:pref_filled: 1005325
stream:pref_useful: 131647
stream:pref_late: 44
stream:misses: 85261
stream:misses_by_poll: 0

CS: 
CS:times selected: 336699
CS:pref_reqs: 855828
CS:pref_reqs_filtered_out: 415119
CS:pref_filled: 239696
CS:pref_useful: 130878
CS:pref_late: 1239
CS:misses: 61639
CS:misses_by_poll: 15

CPLX: 
CPLX:times selected: 879705
CPLX:pref_reqs: 534298
CPLX:pref_reqs_filtered_out: 137965
CPLX:pref_filled: 353346
CPLX:pref_useful: 166548
CPLX:pref_late: 39
CPLX:misses: 178269
CPLX:misses_by_poll: 64

ISB: 
ISB:total access:7383219
ISB:times selected:894547
ISB:canary counter:0
ISB:pref_reqs: 1157228
ISB:pref_reqs_filtered_out: 268747
ISB:pref_filled: 581582
ISB:pref_useful: 340665
ISB:pref_late: 0
ISB:misses: 5497
ISB:misses_by_poll: 179
ISB:Stream end: 835172
ISB:No Prediction: 6488672 87.8841
ISB:No translation: 848222903 11488.5
ISB:Predictions: 876843 11.8762

NL_L1: 
NL:times selected: 1747
NL:pref_reqs: 1747
NL:pref_reqs_filtered_out: 117
NL:pref_filled: 1564
NL:pref_useful: 217
NL:pref_late: 0
NL:misses: 586
NL:misses_by_poll: 0

Coverage: 21.6093
total selections: 3329202
total_filled: 977555
total_useful: 348500
total_late: 1358
total_polluted: 258
total_misses_after_warmup: 1308832
conflicts: 13274770

test: 0
Prefetcher final stats
Training Unit Size: 131
Addr table size: 219992 219994
Stream divergence: 99842 1.35228
Stream divergence -- new stream: 0
--------------------------Training unit table ------------------------

DRAM Statistics
 CHANNEL 0
 RQ ROW_BUFFER_HIT:      98066  ROW_BUFFER_MISS:     196525
 DBUS_CONGESTED:          8
 WQ ROW_BUFFER_HIT:        302  ROW_BUFFER_MISS:       1326  FULL:          0

 AVG_CONGESTED_CYCLE: 4
 All warmup complete: 2
Channel 0 Bank busy for read cycles: 0
Channel 0 Bank busy for write cycles: 0
Channel 0
Rank 0
0banks busy for read cycles: 47441410
0banks busy for write cycles: 1584
1banks busy for read cycles: 16639863
1banks busy for write cycles: 295930
2banks busy for read cycles: 4739241
2banks busy for write cycles: 6508
3banks busy for read cycles: 1729382
3banks busy for write cycles: 0
4banks busy for read cycles: 532209
4banks busy for write cycles: 0
5banks busy for read cycles: 141823
5banks busy for write cycles: 0
6banks busy for read cycles: 32887
6banks busy for write cycles: 0
7banks busy for read cycles: 5048
7banks busy for write cycles: 0
8banks busy for read cycles: 650
8banks busy for write cycles: 0

CPU 0 Branch Prediction Accuracy: 99.4456% MPKI: 0.01328 Average ROB Occupancy at Mispredict: 244.021
Branch types
NOT_BRANCH: 49880232 99.7605%
BRANCH_DIRECT_JUMP: 110 0.00022%
BRANCH_INDIRECT: 0 0%
BRANCH_CONDITIONAL: 119662 0.239324%
BRANCH_DIRECT_CALL: 0 0%
BRANCH_INDIRECT_CALL: 0 0%
BRANCH_RETURN: 0 0%
BRANCH_OTHER: 0 0%

DRAM PAGES: 1048576
Allocated PAGES: 66998
