
*** ChampSim Multicore Out-of-Order Simulator ***

Warmup Instructions: 50000000
Simulation Instructions: 50000000
Number of CPUs: 1
LLC sets: 2048
LLC ways: 16
Off-chip DRAM Size: 4096 MB Channels: 1 Width: 64-bit Data Rate: 6400 MT/s
CPU 0 runs ./traces/SPEC-CPU2017/459.GemsFDTD-1169B.champsimtrace.xz
.xz
CPU 0 Bimodal branch predictor
BTB has LRU replacement policy
ITLB has LRU replacement policy
DTLB has LRU replacement policy
STLB has LRU replacement policy
L1I has LRU replacement policy
L1D has LRU replacement policy
L2C has LRU replacement policy
LLC has LRU replacement policy
Heartbeat CPU 0 instructions: 10000001 cycles: 2998124 heartbeat IPC: 3.33542 cumulative IPC: 3.33542 (Simulation time: 0 hr 5 min 23 sec) 
Heartbeat CPU 0 instructions: 20000000 cycles: 6945656 heartbeat IPC: 2.53323 cumulative IPC: 2.8795 (Simulation time: 0 hr 16 min 19 sec) 
Heartbeat CPU 0 instructions: 30000002 cycles: 11360685 heartbeat IPC: 2.26499 cumulative IPC: 2.64069 (Simulation time: 0 hr 29 min 27 sec) 
Heartbeat CPU 0 instructions: 40000000 cycles: 15781540 heartbeat IPC: 2.26201 cumulative IPC: 2.53461 (Simulation time: 0 hr 42 min 53 sec) 
Heartbeat CPU 0 instructions: 50000002 cycles: 20224820 heartbeat IPC: 2.25059 cumulative IPC: 2.47221 (Simulation time: 0 hr 56 min 24 sec) 

Warmup complete CPU 0 instructions: 50000002 cycles: 20224820 (Simulation time: 0 hr 56 min 24 sec) 

Heartbeat CPU 0 instructions: 60000000 cycles: 33211215 heartbeat IPC: 0.770036 cumulative IPC: 0.770036 (Simulation time: 1 hr 0 min 25 sec) 
Heartbeat CPU 0 instructions: 70000000 cycles: 45953560 heartbeat IPC: 0.784785 cumulative IPC: 0.777341 (Simulation time: 1 hr 4 min 15 sec) 
Heartbeat CPU 0 instructions: 80000000 cycles: 58542680 heartbeat IPC: 0.794337 cumulative IPC: 0.782925 (Simulation time: 1 hr 8 min 4 sec) 
Heartbeat CPU 0 instructions: 90000003 cycles: 70631616 heartbeat IPC: 0.827203 cumulative IPC: 0.793544 (Simulation time: 1 hr 11 min 42 sec) 
Heartbeat CPU 0 instructions: 100000000 cycles: 83091266 heartbeat IPC: 0.802591 cumulative IPC: 0.795337 (Simulation time: 1 hr 15 min 2 sec) 
Finished CPU 0 instructions: 50000002 cycles: 62866483 cumulative IPC: 0.795336 (Simulation time: 1 hr 15 min 2 sec) 

ChampSim completed all CPUs

Region of Interest Statistics

CPU 0 cumulative IPC: 0.795336 instructions: 50000002 cycles: 62866483
ITLB TOTAL     ACCESS:    7376901  HIT:    7376899  MISS:          2  HIT %:        100  MISS %: 2.71117e-05   MPKI: 4e-05
ITLB LOAD TRANSLATION ACCESS:    7376901  HIT:    7376899  MISS:          2  HIT %:        100  MISS %: 2.71117e-05   MPKI: 4e-05
ITLB PREFETCH  REQUESTED:          0  ISSUED:          0  USEFUL:          0  USELESS:          0
ITLB USEFUL LOAD PREFETCHES:          0 PREFETCH ISSUED TO LOWER LEVEL:          0  ACCURACY: -nan
ITLB TIMELY PREFETCHES:          0 LATE PREFETCHES: 0 DROPPED PREFETCHES: 0
ITLB PREFETCHES SAME FILL-ORIGIN LEVEL: 0 DIFFERENT FILL-ORIGIN LEVEL: 0
ITLB AVERAGE MISS LATENCY: 1173 cycles
ITLB RQ	ACCESS:    9723535	FORWARD:          0	MERGED:    2346635	TO_CACHE:    7376900

DTLB TOTAL     ACCESS:   18346570  HIT:   17739729  MISS:     606841  HIT %:    96.6923  MISS %:    3.30765   MPKI: 12.1368
DTLB LOAD TRANSLATION ACCESS:   18346570  HIT:   17739729  MISS:     606841  HIT %:    96.6923  MISS %:    3.30765   MPKI: 12.1368
DTLB PREFETCH  REQUESTED:          0  ISSUED:          0  USEFUL:          0  USELESS:          0
DTLB USEFUL LOAD PREFETCHES:          0 PREFETCH ISSUED TO LOWER LEVEL:          0  ACCURACY: -nan
DTLB TIMELY PREFETCHES:          0 LATE PREFETCHES: 0 DROPPED PREFETCHES: 0
DTLB PREFETCHES SAME FILL-ORIGIN LEVEL: 0 DIFFERENT FILL-ORIGIN LEVEL: 0
DTLB AVERAGE MISS LATENCY: 10.8138 cycles
DTLB RQ	ACCESS:   22397088	FORWARD:          0	MERGED:    4050471	TO_CACHE:   18346617

STLB TOTAL     ACCESS:    2913254  HIT:    2834786  MISS:      78468  HIT %:    97.3065  MISS %:    2.69348   MPKI: 1.56936
STLB LOAD TRANSLATION ACCESS:     606843  HIT:     580294  MISS:      26549  HIT %:    95.6251  MISS %:    4.37494   MPKI: 0.53098
STLB TRANSLATION FROM L1D PREFETCHER ACCESS:    2306411  HIT:    2254492  MISS:      51919  HIT %:    97.7489  MISS %:    2.25107   MPKI: 1.03838
STLB PREFETCH  REQUESTED:          0  ISSUED:          0  USEFUL:      51231  USELESS:        691
STLB USEFUL LOAD PREFETCHES:      51231 PREFETCH ISSUED TO LOWER LEVEL:          0  ACCURACY: inf
STLB TIMELY PREFETCHES:      51231 LATE PREFETCHES: 3 DROPPED PREFETCHES: 0
STLB PREFETCHES SAME FILL-ORIGIN LEVEL: 0 DIFFERENT FILL-ORIGIN LEVEL: 0
STLB AVERAGE MISS LATENCY: 45.8955 cycles
STLB RQ	ACCESS:    5777034	FORWARD:          0	MERGED:    2863777	TO_CACHE:    2913257

STLB Hit, L1D data hit: 0
STLB Hit, L2C data hit: 0
STLB Hit, LLC data hit: 0
STLB Hit, LLC data miss: 0
STLB STLB hints to L2: 0
L1D TOTAL     ACCESS:   27531006  HIT:   25228486  MISS:    2302520  HIT %:    91.6366  MISS %:    8.36337   MPKI: 46.0504
L1D LOAD      ACCESS:   20677634  HIT:   19966244  MISS:     711390  HIT %:    96.5596  MISS %:    3.44038   MPKI: 14.2278
L1D RFO       ACCESS:    1686074  HIT:    1686074  MISS:          0  HIT %:        100  MISS %:          0   MPKI: 0
L1D PREFETCH  ACCESS:    5167298  HIT:    3576168  MISS:    1591130  HIT %:    69.2077  MISS %:    30.7923   MPKI: 31.8226
AGUS PREFETCH L1 MISS: 0
L1D PREFETCH  REQUESTED:   12080566  ISSUED:   10340771  USEFUL:     901385  USELESS:     689809
L1D USEFUL LOAD PREFETCHES:     901385 PREFETCH ISSUED TO LOWER LEVEL:    1591179  ACCURACY: 56.6489
L1D TIMELY PREFETCHES:     901385 LATE PREFETCHES: 46 DROPPED PREFETCHES: 0
L1D PREFETCHES SAME FILL-ORIGIN LEVEL: 1591179 DIFFERENT FILL-ORIGIN LEVEL: 0
L1D AVERAGE MISS LATENCY: 38.9061 cycles
L1D RQ	ACCESS:   27032191	FORWARD:          0	MERGED:    6317837	TO_CACHE:   20711015
L1D WQ	ACCESS:    1686073	FORWARD:       3632	MERGED:          0	TO_CACHE:    1686073
L1D PQ	ACCESS:    5170580	FORWARD:          0	MERGED:         96	TO_CACHE:    5170191

L1D UNIQUE REGIONS ACCESSED: 0
L1D REGIONS CONFLICTS: 0
L1D Cross Page Prefetch Requests: 3371093
L1D Same Page Prefetch Requests: 5841291
L1D ROI Sum of L1D PQ occupancy: 83353418
L1D PREFETCHES PUSHED FROM L2C: 0
L1I TOTAL     ACCESS:    9723488  HIT:    9723405  MISS:         83  HIT %:    99.9991  MISS %: 0.000853603   MPKI: 0.00166
L1I LOAD      ACCESS:    9723488  HIT:    9723405  MISS:         83  HIT %:    99.9991  MISS %: 0.000853603   MPKI: 0.00166
L1I PREFETCH  REQUESTED:          0  ISSUED:          0  USEFUL:          0  USELESS:          0
L1I USEFUL LOAD PREFETCHES:          0 PREFETCH ISSUED TO LOWER LEVEL:          0  ACCURACY: -nan
L1I TIMELY PREFETCHES:          0 LATE PREFETCHES: 0 DROPPED PREFETCHES: 0
L1I PREFETCHES SAME FILL-ORIGIN LEVEL: 0 DIFFERENT FILL-ORIGIN LEVEL: 0
L1I AVERAGE MISS LATENCY: 207.361 cycles
L1I RQ	ACCESS:   13335369	FORWARD:          0	MERGED:    3611834	TO_CACHE:    9723535

BTB TOTAL     ACCESS:     119007  HIT:     118998  MISS:          9  HIT %:    99.9924  MISS %: 0.00756258   MPKI: 0.00018
BTB BRANCH_DIRECT_JUMP	ACCESS:        110  HIT:        108  MISS:          2
BTB BRANCH_INDIRECT	ACCESS:          0  HIT:          0  MISS:          0
BTB BRANCH_CONDITIONAL	ACCESS:     118897  HIT:     118890  MISS:          7
BTB BRANCH_DIRECT_CALL	ACCESS:          0  HIT:          0  MISS:          0
BTB BRANCH_INDIRECT_CALL	ACCESS:          0  HIT:          0  MISS:          0
BTB BRANCH_RETURN	ACCESS:          0  HIT:          0  MISS:          0
BTB BRANCH_OTHER ACCESS:          0  HIT:          0  MISS:          0

L2C TOTAL     ACCESS:    2595496  HIT:    2223165  MISS:     372331  HIT %:    85.6547  MISS %:    14.3453   MPKI: 7.44662
L2C LOAD      ACCESS:     711426  HIT:     604205  MISS:     107221  HIT %:    84.9287  MISS %:    15.0713   MPKI: 2.14442
L2C DATA LOAD MPKI: 2.14276
L2C INSTRUCTION LOAD MPKI: 0.00166
L2C PREFETCH  ACCESS:    1591175  HIT:    1335469  MISS:     255706  HIT %:    83.9297  MISS %:    16.0703   MPKI: 5.11412
AGUS PREFETCH L1 MISS: 0
L2C DATA PREFETCH MPKI: 5.11412
L2C INSTRUCTION PREFETCH MPKI: 0
L2C WRITEBACK ACCESS:     191988  HIT:     191972  MISS:         16  HIT %:    99.9917  MISS %: 0.00833385   MPKI: 0.00032
L2C LOAD TRANSLATION ACCESS:      32773  HIT:      31061  MISS:       1712  HIT %:    94.7762  MISS %:    5.22381   MPKI: 0.03424
L2C TRANSLATION FROM L1D PREFETCHER ACCESS:      68134  HIT:      60458  MISS:       7676  HIT %:     88.734  MISS %:     11.266   MPKI: 0.15352
L2C PREFETCH  REQUESTED:          0  ISSUED:          0  USEFUL:      59909  USELESS:     201716
L2C USEFUL LOAD PREFETCHES:      59909 PREFETCH ISSUED TO LOWER LEVEL:     255708  ACCURACY: 23.4287
L2C TIMELY PREFETCHES:      59909 LATE PREFETCHES: 0 DROPPED PREFETCHES: 0
L2C PREFETCHES SAME FILL-ORIGIN LEVEL: 0 DIFFERENT FILL-ORIGIN LEVEL: 0
L2C AVERAGE MISS LATENCY: 148.562 cycles
L2C RQ	ACCESS:     812334	FORWARD:          0	MERGED:          0	TO_CACHE:     812333
L2C WQ	ACCESS:     191989	FORWARD:          2	MERGED:          0	TO_CACHE:     191989
L2C PQ	ACCESS:    1591179	FORWARD:          0	MERGED:          0	TO_CACHE:    1591178

L2C Instructions Evicting Data 82
L2C Translations Evicting Data 8802
L2C Data Evicting Data 353508
L2C Instructions Evicting Instructions 0
L2C Translations Evicting Instructions 0
L2C Data Evicting Instructions 116
L2C Instructions Evicting Translations 1
L2C Translations Evicting Translations 586
L2C Data Evicting Translations 9220
L2C Dense regions hint from L2: 0
PSCL5 TOTAL     ACCESS:      78468  HIT:      78468  MISS:          0  HIT %:        100  MISS %:          0   MPKI: 0
PSCL5 LOAD TRANSLATION ACCESS:      26546  HIT:      26546  MISS:          0  HIT %:        100  MISS %:          0   MPKI: 0
PSCL5 TRANSLATION FROM L1D PREFETCHER ACCESS:      51922  HIT:      51922  MISS:          0  HIT %:        100  MISS %:          0   MPKI: 0
PSCL5 PREFETCH  REQUESTED:          0  ISSUED:          0  USEFUL:          0  USELESS:          0
PSCL5 USEFUL LOAD PREFETCHES:          0 PREFETCH ISSUED TO LOWER LEVEL:          0  ACCURACY: -nan
PSCL5 TIMELY PREFETCHES:          0 LATE PREFETCHES: 0 DROPPED PREFETCHES: 0
PSCL5 PREFETCHES SAME FILL-ORIGIN LEVEL: 0 DIFFERENT FILL-ORIGIN LEVEL: 0

PSCL4 TOTAL     ACCESS:      78468  HIT:      78468  MISS:          0  HIT %:        100  MISS %:          0   MPKI: 0
PSCL4 LOAD TRANSLATION ACCESS:      26546  HIT:      26546  MISS:          0  HIT %:        100  MISS %:          0   MPKI: 0
PSCL4 TRANSLATION FROM L1D PREFETCHER ACCESS:      51922  HIT:      51922  MISS:          0  HIT %:        100  MISS %:          0   MPKI: 0
PSCL4 PREFETCH  REQUESTED:          0  ISSUED:          0  USEFUL:          0  USELESS:          0
PSCL4 USEFUL LOAD PREFETCHES:          0 PREFETCH ISSUED TO LOWER LEVEL:          0  ACCURACY: -nan
PSCL4 TIMELY PREFETCHES:          0 LATE PREFETCHES: 0 DROPPED PREFETCHES: 0
PSCL4 PREFETCHES SAME FILL-ORIGIN LEVEL: 0 DIFFERENT FILL-ORIGIN LEVEL: 0

PSCL3 TOTAL     ACCESS:      78468  HIT:      78468  MISS:          0  HIT %:        100  MISS %:          0   MPKI: 0
PSCL3 LOAD TRANSLATION ACCESS:      26546  HIT:      26546  MISS:          0  HIT %:        100  MISS %:          0   MPKI: 0
PSCL3 TRANSLATION FROM L1D PREFETCHER ACCESS:      51922  HIT:      51922  MISS:          0  HIT %:        100  MISS %:          0   MPKI: 0
PSCL3 PREFETCH  REQUESTED:          0  ISSUED:          0  USEFUL:          0  USELESS:          0
PSCL3 USEFUL LOAD PREFETCHES:          0 PREFETCH ISSUED TO LOWER LEVEL:          0  ACCURACY: -nan
PSCL3 TIMELY PREFETCHES:          0 LATE PREFETCHES: 0 DROPPED PREFETCHES: 0
PSCL3 PREFETCHES SAME FILL-ORIGIN LEVEL: 0 DIFFERENT FILL-ORIGIN LEVEL: 0

PSCL2 TOTAL     ACCESS:      78468  HIT:      56024  MISS:      22444  HIT %:    71.3973  MISS %:    28.6027   MPKI: 0.44888
PSCL2 LOAD TRANSLATION ACCESS:      42758  HIT:      20314  MISS:      22444  HIT %:    47.5092  MISS %:    52.4908   MPKI: 0.44888
PSCL2 TRANSLATION FROM L1D PREFETCHER ACCESS:      35710  HIT:      35710  MISS:          0  HIT %:        100  MISS %:          0   MPKI: 0
PSCL2 PREFETCH  REQUESTED:          0  ISSUED:          0  USEFUL:          0  USELESS:          0
PSCL2 USEFUL LOAD PREFETCHES:          0 PREFETCH ISSUED TO LOWER LEVEL:          0  ACCURACY: -nan
PSCL2 TIMELY PREFETCHES:          0 LATE PREFETCHES: 0 DROPPED PREFETCHES: 0
PSCL2 PREFETCHES SAME FILL-ORIGIN LEVEL: 0 DIFFERENT FILL-ORIGIN LEVEL: 0

LLC TOTAL     ACCESS:     381472  HIT:     101679  MISS:     279793  HIT %:    26.6544  MISS %:    73.3456   MPKI: 5.59586
LLC LOAD      ACCESS:     107221  HIT:      22805  MISS:      84416  HIT %:    21.2692  MISS %:    78.7308   MPKI: 1.68832
LLC PREFETCH  ACCESS:     255703  HIT:      64967  MISS:     190736  HIT %:    25.4072  MISS %:    74.5928   MPKI: 3.81472
AGUS PREFETCH L1 MISS: 0
LLC WRITEBACK ACCESS:       9160  HIT:       7932  MISS:       1228  HIT %:    86.5939  MISS %:    13.4061   MPKI: 0.02456
LLC LOAD TRANSLATION ACCESS:       1712  HIT:       1251  MISS:        461  HIT %:    73.0724  MISS %:    26.9276   MPKI: 0.00922
LLC TRANSLATION FROM L1D PREFETCHER ACCESS:       7676  HIT:       4724  MISS:       2952  HIT %:    61.5425  MISS %:    38.4575   MPKI: 0.05904
LLC PREFETCH  REQUESTED:          0  ISSUED:          0  USEFUL:       9347  USELESS:     171787
LLC USEFUL LOAD PREFETCHES:       9347 PREFETCH ISSUED TO LOWER LEVEL:     190738  ACCURACY: 4.90044
LLC TIMELY PREFETCHES:       9347 LATE PREFETCHES: 0 DROPPED PREFETCHES: 0
LLC PREFETCHES SAME FILL-ORIGIN LEVEL: 0 DIFFERENT FILL-ORIGIN LEVEL: 0
LLC AVERAGE MISS LATENCY: 157.545 cycles
LLC RQ	ACCESS:     116609	FORWARD:          0	MERGED:          0	TO_CACHE:     116609
LLC WQ	ACCESS:       9160	FORWARD:          3	MERGED:          0	TO_CACHE:       9160
LLC PQ	ACCESS:     255708	FORWARD:          0	MERGED:          0	TO_CACHE:     255705

LLC Dense regions hint to LLC: 0

RAW hits: 26386
Loads Generated: 27058578
Loads sent to L1D: 27032191
Stores Generated: 1686072
Stores sent to L1D: 1686073
Major fault: 0 Minor fault: 66998
Allocated PAGES: 66998

stream: 
stream:times selected: 1216944
stream:pref_reqs: 1529820
stream:pref_reqs_filtered_out: 407359
stream:pref_filled: 866675
stream:pref_useful: 57649
stream:pref_late: 24
stream:misses: 24289
stream:misses_by_poll: 0

CS: 
CS:times selected: 368929
CS:pref_reqs: 478635
CS:pref_reqs_filtered_out: 297576
CS:pref_filled: 95827
CS:pref_useful: 36952
CS:pref_late: 8
CS:misses: 293
CS:misses_by_poll: 8

CPLX: 
CPLX:times selected: 1160365
CPLX:pref_reqs: 811354
CPLX:pref_reqs_filtered_out: 316100
CPLX:pref_filled: 402702
CPLX:pref_useful: 185478
CPLX:pref_late: 9
CPLX:misses: 53585
CPLX:misses_by_poll: 244

ISB: 
ISB:total access:37511769
ISB:times selected:5795181
ISB:canary counter:0
ISB:pref_reqs: 17682370
ISB:pref_reqs_filtered_out: 7742436
ISB:pref_filled: 1833501
ISB:pref_useful: 1476095
ISB:pref_late: 23
ISB:misses: 269662
ISB:misses_by_poll: 2163
ISB:Stream end: 4388987
ISB:No Prediction: 31716588 84.551
ISB:No translation: 3984321273
ISB:Predictions: 7585984 20.2229

NL_L1: 
NL:times selected: 1367
NL:pref_reqs: 1367
NL:pref_reqs_filtered_out: 217
NL:pref_filled: 1056
NL:pref_useful: 57
NL:pref_late: 0
NL:misses: 451
NL:misses_by_poll: 0

Coverage: 55.8903
total selections: 8542786
total_filled: 1591130
total_useful: 901385
total_late: 71
total_polluted: 2415
total_misses_after_warmup: 744770
conflicts: 13241342

test: 0
ISB Prefetcher final stats
Prefetcher final stats
Training Unit Size: 1628
Addr table size: 529287 530189
Triggers: 37511769
Structural address exists: 5795181 15.449
No Prediction: 31716588 84.551
Prefetches issued: 7585984 20.2229
Stream end: 4388987
No translation: 3984321273
%Stream divergence: 394226 1.05094
Stream divergence -- new stream: 0
A: 0
B: 0
C: 1216945
D: 1216945
E: 1216945
F: 0
G: 0

DRAM Statistics
 CHANNEL 0
 RQ ROW_BUFFER_HIT:      78279  ROW_BUFFER_MISS:     200286
 DBUS_CONGESTED:         53
 WQ ROW_BUFFER_HIT:        257  ROW_BUFFER_MISS:       1301  FULL:          0

 AVG_CONGESTED_CYCLE: 4
 All warmup complete: 2
Channel 0 Bank busy for read cycles: 0
Channel 0 Bank busy for write cycles: 0
Channel 0
Rank 0
0banks busy for read cycles: 41352176
0banks busy for write cycles: 1477
1banks busy for read cycles: 13770700
1banks busy for write cycles: 334970
2banks busy for read cycles: 4182275
2banks busy for write cycles: 19320
3banks busy for read cycles: 1807450
3banks busy for write cycles: 2742
4banks busy for read cycles: 847398
4banks busy for write cycles: 0
5banks busy for read cycles: 352192
5banks busy for write cycles: 0
6banks busy for read cycles: 134129
6banks busy for write cycles: 0
7banks busy for read cycles: 48574
7banks busy for write cycles: 0
8banks busy for read cycles: 13081
8banks busy for write cycles: 0

CPU 0 Branch Prediction Accuracy: 99.4456% MPKI: 0.01328 Average ROB Occupancy at Mispredict: 241.036
Branch types
NOT_BRANCH: 49880231 99.7605%
BRANCH_DIRECT_JUMP: 110 0.00022%
BRANCH_INDIRECT: 0 0%
BRANCH_CONDITIONAL: 119662 0.239324%
BRANCH_DIRECT_CALL: 0 0%
BRANCH_INDIRECT_CALL: 0 0%
BRANCH_RETURN: 0 0%
BRANCH_OTHER: 0 0%

DRAM PAGES: 1048576
Allocated PAGES: 66998
