
*** ChampSim Multicore Out-of-Order Simulator ***

Warmup Instructions: 50000000
Simulation Instructions: 50000000
Number of CPUs: 1
LLC sets: 2048
LLC ways: 16
Off-chip DRAM Size: 4096 MB Channels: 1 Width: 64-bit Data Rate: 6400 MT/s
CPU 0 runs ./traces/SPEC-CPU2017/459.GemsFDTD-1169B.champsimtrace.xz
.xz
CPU 0 Bimodal branch predictor
BTB has LRU replacement policy
ITLB has LRU replacement policy
DTLB has LRU replacement policy
STLB has LRU replacement policy
L1I has LRU replacement policy
L1D has LRU replacement policy
L2C has LRU replacement policy
LLC has LRU replacement policy
Heartbeat CPU 0 instructions: 10000001 cycles: 2998126 heartbeat IPC: 3.33542 cumulative IPC: 3.33542 (Simulation time: 0 hr 5 min 35 sec) 
Heartbeat CPU 0 instructions: 20000000 cycles: 6952550 heartbeat IPC: 2.52881 cumulative IPC: 2.87664 (Simulation time: 0 hr 23 min 24 sec) 
Heartbeat CPU 0 instructions: 30000000 cycles: 11383918 heartbeat IPC: 2.25664 cumulative IPC: 2.6353 (Simulation time: 0 hr 45 min 20 sec) 
Heartbeat CPU 0 instructions: 40000000 cycles: 15825296 heartbeat IPC: 2.25155 cumulative IPC: 2.5276 (Simulation time: 1 hr 4 min 55 sec) 
Heartbeat CPU 0 instructions: 50000001 cycles: 20286878 heartbeat IPC: 2.24136 cumulative IPC: 2.46465 (Simulation time: 1 hr 14 min 32 sec) 

Warmup complete CPU 0 instructions: 50000001 cycles: 20286878 (Simulation time: 1 hr 14 min 32 sec) 

Heartbeat CPU 0 instructions: 60000000 cycles: 34044853 heartbeat IPC: 0.726851 cumulative IPC: 0.726851 (Simulation time: 1 hr 15 min 54 sec) 
Heartbeat CPU 0 instructions: 70000002 cycles: 47395279 heartbeat IPC: 0.74904 cumulative IPC: 0.737779 (Simulation time: 1 hr 17 min 0 sec) 
Heartbeat CPU 0 instructions: 80000000 cycles: 60487916 heartbeat IPC: 0.763788 cumulative IPC: 0.746249 (Simulation time: 1 hr 18 min 5 sec) 
Heartbeat CPU 0 instructions: 90000003 cycles: 72985117 heartbeat IPC: 0.800179 cumulative IPC: 0.759039 (Simulation time: 1 hr 19 min 11 sec) 
Heartbeat CPU 0 instructions: 100000000 cycles: 93196818 heartbeat IPC: 0.494763 cumulative IPC: 0.685778 (Simulation time: 1 hr 20 min 24 sec) 
Finished CPU 0 instructions: 50000003 cycles: 72909977 cumulative IPC: 0.685777 (Simulation time: 1 hr 20 min 24 sec) 

ChampSim completed all CPUs

Region of Interest Statistics

CPU 0 cumulative IPC: 0.685777 instructions: 50000003 cycles: 72909977
ITLB TOTAL     ACCESS:    7609964  HIT:    7609962  MISS:          2  HIT %:        100  MISS %: 2.62813e-05   MPKI: 4e-05
ITLB LOAD TRANSLATION ACCESS:    7609964  HIT:    7609962  MISS:          2  HIT %:        100  MISS %: 2.62813e-05   MPKI: 4e-05
ITLB PREFETCH  REQUESTED:          0  ISSUED:          0  USEFUL:          0  USELESS:          0
ITLB USEFUL LOAD PREFETCHES:          0 PREFETCH ISSUED TO LOWER LEVEL:          0  ACCURACY: -nan
ITLB TIMELY PREFETCHES:          0 LATE PREFETCHES: 0 DROPPED PREFETCHES: 0
ITLB PREFETCHES SAME FILL-ORIGIN LEVEL: 0 DIFFERENT FILL-ORIGIN LEVEL: 0
ITLB AVERAGE MISS LATENCY: 561 cycles
ITLB RQ	ACCESS:    9955220	FORWARD:          0	MERGED:    2345257	TO_CACHE:    7609963

DTLB TOTAL     ACCESS:   18457737  HIT:   17851047  MISS:     606690  HIT %:    96.7131  MISS %:    3.28691   MPKI: 12.1338
DTLB LOAD TRANSLATION ACCESS:   18457737  HIT:   17851047  MISS:     606690  HIT %:    96.7131  MISS %:    3.28691   MPKI: 12.1338
DTLB PREFETCH  REQUESTED:          0  ISSUED:          0  USEFUL:          0  USELESS:          0
DTLB USEFUL LOAD PREFETCHES:          0 PREFETCH ISSUED TO LOWER LEVEL:          0  ACCURACY: -nan
DTLB TIMELY PREFETCHES:          0 LATE PREFETCHES: 0 DROPPED PREFETCHES: 0
DTLB PREFETCHES SAME FILL-ORIGIN LEVEL: 0 DIFFERENT FILL-ORIGIN LEVEL: 0
DTLB AVERAGE MISS LATENCY: 13.7533 cycles
DTLB RQ	ACCESS:   22480278	FORWARD:          0	MERGED:    4022491	TO_CACHE:   18457787

STLB TOTAL     ACCESS:    1125527  HIT:    1050537  MISS:      74990  HIT %:    93.3373  MISS %:    6.66266   MPKI: 1.4998
STLB LOAD TRANSLATION ACCESS:     606692  HIT:     531703  MISS:      74989  HIT %:    87.6397  MISS %:    12.3603   MPKI: 1.49978
STLB TRANSLATION FROM L1D PREFETCHER ACCESS:     518835  HIT:     518834  MISS:          1  HIT %:    99.9998  MISS %: 0.00019274   MPKI: 2e-05
STLB PREFETCH  REQUESTED:          0  ISSUED:          0  USEFUL:          1  USELESS:          0
STLB USEFUL LOAD PREFETCHES:          1 PREFETCH ISSUED TO LOWER LEVEL:          0  ACCURACY: inf
STLB TIMELY PREFETCHES:          1 LATE PREFETCHES: 0 DROPPED PREFETCHES: 0
STLB PREFETCHES SAME FILL-ORIGIN LEVEL: 0 DIFFERENT FILL-ORIGIN LEVEL: 0
STLB AVERAGE MISS LATENCY: 38.2957 cycles
STLB RQ	ACCESS:    1300135	FORWARD:          0	MERGED:     174608	TO_CACHE:    1125527

STLB Hit, L1D data hit: 0
STLB Hit, L2C data hit: 0
STLB Hit, LLC data hit: 0
STLB Hit, LLC data miss: 0
STLB STLB hints to L2: 0
L1D TOTAL     ACCESS:   23126510  HIT:   20976698  MISS:    2149812  HIT %:    90.7041  MISS %:    9.29588   MPKI: 42.9962
L1D LOAD      ACCESS:   20747848  HIT:   19268226  MISS:    1479622  HIT %:    92.8686  MISS %:    7.13145   MPKI: 29.5924
L1D RFO       ACCESS:    1686074  HIT:    1686074  MISS:          0  HIT %:        100  MISS %:          0   MPKI: 0
L1D PREFETCH  ACCESS:     692588  HIT:      22398  MISS:     670190  HIT %:    3.23396  MISS %:     96.766   MPKI: 13.4038
AGUS PREFETCH L1 MISS: 0
L1D PREFETCH  REQUESTED:    1387064  ISSUED:    1387062  USEFUL:     133149  USELESS:     537100
L1D USEFUL LOAD PREFETCHES:     133149 PREFETCH ISSUED TO LOWER LEVEL:     670901  ACCURACY: 19.8463
L1D TIMELY PREFETCHES:     133149 LATE PREFETCHES: 711 DROPPED PREFETCHES: 0
L1D PREFETCHES SAME FILL-ORIGIN LEVEL: 670901 DIFFERENT FILL-ORIGIN LEVEL: 0
L1D AVERAGE MISS LATENCY: 40.1011 cycles
L1D RQ	ACCESS:   27022493	FORWARD:          0	MERGED:    6225925	TO_CACHE:   20794205
L1D WQ	ACCESS:    1686073	FORWARD:       2539	MERGED:          0	TO_CACHE:    1686073
L1D PQ	ACCESS:     693619	FORWARD:          0	MERGED:          0	TO_CACHE:     693443

L1D UNIQUE REGIONS ACCESSED: 0
L1D REGIONS CONFLICTS: 0
L1D Cross Page Prefetch Requests: 0
L1D Same Page Prefetch Requests: 1634461
L1D ROI Sum of L1D PQ occupancy: 9092757
L1D PREFETCHES PUSHED FROM L2C: 0
L1I TOTAL     ACCESS:    9955175  HIT:    9955092  MISS:         83  HIT %:    99.9992  MISS %: 0.000833737   MPKI: 0.00166
L1I LOAD      ACCESS:    9955175  HIT:    9955092  MISS:         83  HIT %:    99.9992  MISS %: 0.000833737   MPKI: 0.00166
L1I PREFETCH  REQUESTED:          0  ISSUED:          0  USEFUL:          0  USELESS:          0
L1I USEFUL LOAD PREFETCHES:          0 PREFETCH ISSUED TO LOWER LEVEL:          0  ACCURACY: -nan
L1I TIMELY PREFETCHES:          0 LATE PREFETCHES: 0 DROPPED PREFETCHES: 0
L1I PREFETCHES SAME FILL-ORIGIN LEVEL: 0 DIFFERENT FILL-ORIGIN LEVEL: 0
L1I AVERAGE MISS LATENCY: 200.602 cycles
L1I RQ	ACCESS:   13641400	FORWARD:          0	MERGED:    3686180	TO_CACHE:    9955220

BTB TOTAL     ACCESS:     119007  HIT:     118998  MISS:          9  HIT %:    99.9924  MISS %: 0.00756258   MPKI: 0.00018
BTB BRANCH_DIRECT_JUMP	ACCESS:        110  HIT:        108  MISS:          2
BTB BRANCH_INDIRECT	ACCESS:          0  HIT:          0  MISS:          0
BTB BRANCH_CONDITIONAL	ACCESS:     118897  HIT:     118890  MISS:          7
BTB BRANCH_DIRECT_CALL	ACCESS:          0  HIT:          0  MISS:          0
BTB BRANCH_INDIRECT_CALL	ACCESS:          0  HIT:          0  MISS:          0
BTB BRANCH_RETURN	ACCESS:          0  HIT:          0  MISS:          0
BTB BRANCH_OTHER ACCESS:          0  HIT:          0  MISS:          0

L2C TOTAL     ACCESS:    2439559  HIT:    2066001  MISS:     373558  HIT %:    84.6875  MISS %:    15.3125   MPKI: 7.47116
L2C LOAD      ACCESS:    1478994  HIT:    1287646  MISS:     191348  HIT %:    87.0623  MISS %:    12.9377   MPKI: 3.82696
L2C DATA LOAD MPKI: 3.8253
L2C INSTRUCTION LOAD MPKI: 0.00166
L2C PREFETCH  ACCESS:     670899  HIT:     497445  MISS:     173454  HIT %:     74.146  MISS %:     25.854   MPKI: 3.46908
AGUS PREFETCH L1 MISS: 0
L2C DATA PREFETCH MPKI: 3.46908
L2C INSTRUCTION PREFETCH MPKI: 0
L2C WRITEBACK ACCESS:     191981  HIT:     191965  MISS:         16  HIT %:    99.9917  MISS %: 0.00833416   MPKI: 0.00032
L2C LOAD TRANSLATION ACCESS:      97684  HIT:      88944  MISS:       8740  HIT %:    91.0528  MISS %:    8.94722   MPKI: 0.1748
L2C TRANSLATION FROM L1D PREFETCHER ACCESS:          1  HIT:          1  MISS:          0  HIT %:        100  MISS %:          0   MPKI: 0
L2C PREFETCH  REQUESTED:          0  ISSUED:          0  USEFUL:      53461  USELESS:     119632
L2C USEFUL LOAD PREFETCHES:      53461 PREFETCH ISSUED TO LOWER LEVEL:     173454  ACCURACY: 30.8214
L2C TIMELY PREFETCHES:      53461 LATE PREFETCHES: 0 DROPPED PREFETCHES: 0
L2C PREFETCHES SAME FILL-ORIGIN LEVEL: 0 DIFFERENT FILL-ORIGIN LEVEL: 0
L2C AVERAGE MISS LATENCY: 146.095 cycles
L2C RQ	ACCESS:    1576679	FORWARD:          0	MERGED:          0	TO_CACHE:    1576679
L2C WQ	ACCESS:     191981	FORWARD:          2	MERGED:          0	TO_CACHE:     191981
L2C PQ	ACCESS:     670901	FORWARD:          0	MERGED:          0	TO_CACHE:     670899

L2C Instructions Evicting Data 82
L2C Translations Evicting Data 8196
L2C Data Evicting Data 355998
L2C Instructions Evicting Instructions 0
L2C Translations Evicting Instructions 0
L2C Data Evicting Instructions 115
L2C Instructions Evicting Translations 1
L2C Translations Evicting Translations 544
L2C Data Evicting Translations 8606
L2C Dense regions hint from L2: 0
PSCL5 TOTAL     ACCESS:      74990  HIT:      74990  MISS:          0  HIT %:        100  MISS %:          0   MPKI: 0
PSCL5 LOAD TRANSLATION ACCESS:      74989  HIT:      74989  MISS:          0  HIT %:        100  MISS %:          0   MPKI: 0
PSCL5 TRANSLATION FROM L1D PREFETCHER ACCESS:          1  HIT:          1  MISS:          0  HIT %:        100  MISS %:          0   MPKI: 0
PSCL5 PREFETCH  REQUESTED:          0  ISSUED:          0  USEFUL:          0  USELESS:          0
PSCL5 USEFUL LOAD PREFETCHES:          0 PREFETCH ISSUED TO LOWER LEVEL:          0  ACCURACY: -nan
PSCL5 TIMELY PREFETCHES:          0 LATE PREFETCHES: 0 DROPPED PREFETCHES: 0
PSCL5 PREFETCHES SAME FILL-ORIGIN LEVEL: 0 DIFFERENT FILL-ORIGIN LEVEL: 0

PSCL4 TOTAL     ACCESS:      74990  HIT:      74990  MISS:          0  HIT %:        100  MISS %:          0   MPKI: 0
PSCL4 LOAD TRANSLATION ACCESS:      74989  HIT:      74989  MISS:          0  HIT %:        100  MISS %:          0   MPKI: 0
PSCL4 TRANSLATION FROM L1D PREFETCHER ACCESS:          1  HIT:          1  MISS:          0  HIT %:        100  MISS %:          0   MPKI: 0
PSCL4 PREFETCH  REQUESTED:          0  ISSUED:          0  USEFUL:          0  USELESS:          0
PSCL4 USEFUL LOAD PREFETCHES:          0 PREFETCH ISSUED TO LOWER LEVEL:          0  ACCURACY: -nan
PSCL4 TIMELY PREFETCHES:          0 LATE PREFETCHES: 0 DROPPED PREFETCHES: 0
PSCL4 PREFETCHES SAME FILL-ORIGIN LEVEL: 0 DIFFERENT FILL-ORIGIN LEVEL: 0

PSCL3 TOTAL     ACCESS:      74990  HIT:      74990  MISS:          0  HIT %:        100  MISS %:          0   MPKI: 0
PSCL3 LOAD TRANSLATION ACCESS:      74989  HIT:      74989  MISS:          0  HIT %:        100  MISS %:          0   MPKI: 0
PSCL3 TRANSLATION FROM L1D PREFETCHER ACCESS:          1  HIT:          1  MISS:          0  HIT %:        100  MISS %:          0   MPKI: 0
PSCL3 PREFETCH  REQUESTED:          0  ISSUED:          0  USEFUL:          0  USELESS:          0
PSCL3 USEFUL LOAD PREFETCHES:          0 PREFETCH ISSUED TO LOWER LEVEL:          0  ACCURACY: -nan
PSCL3 TIMELY PREFETCHES:          0 LATE PREFETCHES: 0 DROPPED PREFETCHES: 0
PSCL3 PREFETCHES SAME FILL-ORIGIN LEVEL: 0 DIFFERENT FILL-ORIGIN LEVEL: 0

PSCL2 TOTAL     ACCESS:      74990  HIT:      52290  MISS:      22700  HIT %:    69.7293  MISS %:    30.2707   MPKI: 0.454
PSCL2 LOAD TRANSLATION ACCESS:      74989  HIT:      52289  MISS:      22700  HIT %:    69.7289  MISS %:    30.2711   MPKI: 0.454
PSCL2 TRANSLATION FROM L1D PREFETCHER ACCESS:          1  HIT:          1  MISS:          0  HIT %:        100  MISS %:          0   MPKI: 0
PSCL2 PREFETCH  REQUESTED:          0  ISSUED:          0  USEFUL:          0  USELESS:          0
PSCL2 USEFUL LOAD PREFETCHES:          0 PREFETCH ISSUED TO LOWER LEVEL:          0  ACCURACY: -nan
PSCL2 TIMELY PREFETCHES:          0 LATE PREFETCHES: 0 DROPPED PREFETCHES: 0
PSCL2 PREFETCHES SAME FILL-ORIGIN LEVEL: 0 DIFFERENT FILL-ORIGIN LEVEL: 0

LLC TOTAL     ACCESS:     381059  HIT:      88408  MISS:     292651  HIT %:    23.2006  MISS %:    76.7994   MPKI: 5.85302
LLC LOAD      ACCESS:     191348  HIT:      34104  MISS:     157244  HIT %:     17.823  MISS %:     82.177   MPKI: 3.14488
LLC PREFETCH  ACCESS:     173454  HIT:      42564  MISS:     130890  HIT %:    24.5391  MISS %:    75.4609   MPKI: 2.6178
AGUS PREFETCH L1 MISS: 0
LLC WRITEBACK ACCESS:       7517  HIT:       6176  MISS:       1341  HIT %:    82.1604  MISS %:    17.8396   MPKI: 0.02682
LLC LOAD TRANSLATION ACCESS:       8740  HIT:       5564  MISS:       3176  HIT %:    63.6613  MISS %:    36.3387   MPKI: 0.06352
LLC PREFETCH  REQUESTED:          0  ISSUED:          0  USEFUL:       8920  USELESS:     123157
LLC USEFUL LOAD PREFETCHES:       8920 PREFETCH ISSUED TO LOWER LEVEL:     130890  ACCURACY: 6.81488
LLC TIMELY PREFETCHES:       8920 LATE PREFETCHES: 0 DROPPED PREFETCHES: 0
LLC PREFETCHES SAME FILL-ORIGIN LEVEL: 0 DIFFERENT FILL-ORIGIN LEVEL: 0
LLC AVERAGE MISS LATENCY: 148.003 cycles
LLC RQ	ACCESS:     200088	FORWARD:          0	MERGED:          0	TO_CACHE:     200088
LLC WQ	ACCESS:       7517	FORWARD:          0	MERGED:          0	TO_CACHE:       7517
LLC PQ	ACCESS:     173454	FORWARD:          0	MERGED:          0	TO_CACHE:     173454

LLC Dense regions hint to LLC: 0

RAW hits: 36083
Loads Generated: 27058577
Loads sent to L1D: 27022493
Stores Generated: 1686072
Stores sent to L1D: 1686073
Major fault: 0 Minor fault: 66998
Allocated PAGES: 66998

stream: 
stream:times selected: 1214696
stream:pref_filled: 1150182
stream:pref_useful: 231649
stream:pref_late: 67
stream:misses: 155303
stream:misses_by_poll: 0

CS: 
CS:times selected: 273229
CS:pref_filled: 81730
CS:pref_useful: 29630
CS:pref_late: 614
CS:misses: 3872
CS:misses_by_poll: 7

CPLX: 
CPLX:times selected: 1156993
CPLX:pref_filled: 315534
CPLX:pref_useful: 103001
CPLX:pref_late: 20
CPLX:misses: 446190
CPLX:misses_by_poll: 59

NL_L1: 
NL:times selected: 4317
NL:pref_filled: 4147
NL:pref_useful: 687
NL:pref_late: 1
NL:misses: 2477
NL:misses_by_poll: 0

total selections: 2649235
total_filled: 670190
total_useful: 133149
total_late: 750
total_polluted: 66
total_misses_after_warmup: 1525978
conflicts: 13291001

test: 533037

DRAM Statistics
 CHANNEL 0
 RQ ROW_BUFFER_HIT:     101830  ROW_BUFFER_MISS:     189479
 DBUS_CONGESTED:         11
 WQ ROW_BUFFER_HIT:        295  ROW_BUFFER_MISS:       1316  FULL:          0

 AVG_CONGESTED_CYCLE: 4
 All warmup complete: 2
Channel 0 Bank busy for read cycles: 0
Channel 0 Bank busy for write cycles: 0
Channel 0
Rank 0
0banks busy for read cycles: 48446006
0banks busy for write cycles: 1576
1banks busy for read cycles: 17205809
1banks busy for write cycles: 298860
2banks busy for read cycles: 5038062
2banks busy for write cycles: 5083
3banks busy for read cycles: 1496442
3banks busy for write cycles: 0
4banks busy for read cycles: 354422
4banks busy for write cycles: 0
5banks busy for read cycles: 57795
5banks busy for write cycles: 0
6banks busy for read cycles: 5796
6banks busy for write cycles: 0
7banks busy for read cycles: 127
7banks busy for write cycles: 0
8banks busy for read cycles: 0
8banks busy for write cycles: 0

CPU 0 Branch Prediction Accuracy: 99.4456% MPKI: 0.01328 Average ROB Occupancy at Mispredict: 244.233
Branch types
NOT_BRANCH: 49880235 99.7605%
BRANCH_DIRECT_JUMP: 110 0.00022%
BRANCH_INDIRECT: 0 0%
BRANCH_CONDITIONAL: 119662 0.239324%
BRANCH_DIRECT_CALL: 0 0%
BRANCH_INDIRECT_CALL: 0 0%
BRANCH_RETURN: 0 0%
BRANCH_OTHER: 0 0%

DRAM PAGES: 1048576
Allocated PAGES: 66998
