
*** ChampSim Multicore Out-of-Order Simulator ***

Warmup Instructions: 50000000
Simulation Instructions: 50000000
Number of CPUs: 1
LLC sets: 2048
LLC ways: 16
Off-chip DRAM Size: 4096 MB Channels: 1 Width: 64-bit Data Rate: 6400 MT/s
CPU 0 runs ./traces/SPEC-CPU2017/462.libquantum-714B.champsimtrace.xz
.xz
CPU 0 Bimodal branch predictor
BTB has LRU replacement policy
ITLB has LRU replacement policy
DTLB has LRU replacement policy
STLB has LRU replacement policy
L1I has LRU replacement policy
L1D has LRU replacement policy
L2C has LRU replacement policy
LLC has LRU replacement policy
Heartbeat CPU 0 instructions: 10000001 cycles: 3582958 heartbeat IPC: 2.79099 cumulative IPC: 2.79099 (Simulation time: 0 hr 0 min 41 sec) 
Heartbeat CPU 0 instructions: 20000000 cycles: 6916288 heartbeat IPC: 3 cumulative IPC: 2.89172 (Simulation time: 0 hr 1 min 45 sec) 
Heartbeat CPU 0 instructions: 30000000 cycles: 10460603 heartbeat IPC: 2.82142 cumulative IPC: 2.8679 (Simulation time: 0 hr 2 min 33 sec) 
Heartbeat CPU 0 instructions: 40000000 cycles: 14091810 heartbeat IPC: 2.75391 cumulative IPC: 2.83853 (Simulation time: 0 hr 3 min 19 sec) 
Heartbeat CPU 0 instructions: 50000000 cycles: 17725050 heartbeat IPC: 2.75236 cumulative IPC: 2.82087 (Simulation time: 0 hr 4 min 7 sec) 

Warmup complete CPU 0 instructions: 50000004 cycles: 17725051 (Simulation time: 0 hr 4 min 7 sec) 

Heartbeat CPU 0 instructions: 60000000 cycles: 27758891 heartbeat IPC: 0.996627 cumulative IPC: 0.996627 (Simulation time: 0 hr 5 min 35 sec) 
Heartbeat CPU 0 instructions: 70000003 cycles: 37956703 heartbeat IPC: 0.980603 cumulative IPC: 0.98855 (Simulation time: 0 hr 6 min 59 sec) 
Heartbeat CPU 0 instructions: 80000000 cycles: 54008038 heartbeat IPC: 0.623001 cumulative IPC: 0.826834 (Simulation time: 0 hr 8 min 46 sec) 
Heartbeat CPU 0 instructions: 90000000 cycles: 67020290 heartbeat IPC: 0.768506 cumulative IPC: 0.811437 (Simulation time: 0 hr 10 min 12 sec) 
Heartbeat CPU 0 instructions: 100000000 cycles: 77785520 heartbeat IPC: 0.928917 cumulative IPC: 0.832494 (Simulation time: 0 hr 11 min 14 sec) 
Finished CPU 0 instructions: 50000002 cycles: 60060489 cumulative IPC: 0.832494 (Simulation time: 0 hr 11 min 14 sec) 

ChampSim completed all CPUs

Region of Interest Statistics

CPU 0 cumulative IPC: 0.832494 instructions: 50000002 cycles: 60060489
ITLB TOTAL     ACCESS:    9986823  HIT:    9986823  MISS:          0  HIT %:        100  MISS %:          0   MPKI: 0
ITLB LOAD TRANSLATION ACCESS:    9986823  HIT:    9986823  MISS:          0  HIT %:        100  MISS %:          0   MPKI: 0
ITLB PREFETCH  REQUESTED:          0  ISSUED:          0  USEFUL:          0  USELESS:          0
ITLB USEFUL LOAD PREFETCHES:          0 PREFETCH ISSUED TO LOWER LEVEL:          0  ACCURACY: -nan
ITLB TIMELY PREFETCHES:          0 LATE PREFETCHES: 0 DROPPED PREFETCHES: 0
ITLB PREFETCHES SAME FILL-ORIGIN LEVEL: 0 DIFFERENT FILL-ORIGIN LEVEL: 0
ITLB AVERAGE MISS LATENCY: -nan cycles
ITLB RQ	ACCESS:   11047010	FORWARD:          0	MERGED:    1060187	TO_CACHE:    9986823

DTLB TOTAL     ACCESS:    6233732  HIT:    6213001  MISS:      20731  HIT %:    99.6674  MISS %:   0.332562   MPKI: 0.41462
DTLB LOAD TRANSLATION ACCESS:    6233732  HIT:    6213001  MISS:      20731  HIT %:    99.6674  MISS %:   0.332562   MPKI: 0.41462
DTLB PREFETCH  REQUESTED:          0  ISSUED:          0  USEFUL:          0  USELESS:          0
DTLB USEFUL LOAD PREFETCHES:          0 PREFETCH ISSUED TO LOWER LEVEL:          0  ACCURACY: -nan
DTLB TIMELY PREFETCHES:          0 LATE PREFETCHES: 0 DROPPED PREFETCHES: 0
DTLB PREFETCHES SAME FILL-ORIGIN LEVEL: 0 DIFFERENT FILL-ORIGIN LEVEL: 0
DTLB AVERAGE MISS LATENCY: 17.8102 cycles
DTLB RQ	ACCESS:    7496112	FORWARD:          0	MERGED:    1256512	TO_CACHE:    6239600

STLB TOTAL     ACCESS:     365551  HIT:     344820  MISS:      20731  HIT %:    94.3288  MISS %:    5.67116   MPKI: 0.41462
STLB LOAD TRANSLATION ACCESS:      20731  HIT:      16752  MISS:       3979  HIT %:    80.8065  MISS %:    19.1935   MPKI: 0.07958
STLB TRANSLATION FROM L1D PREFETCHER ACCESS:     344820  HIT:     328068  MISS:      16752  HIT %:    95.1418  MISS %:    4.85819   MPKI: 0.33504
STLB PREFETCH  REQUESTED:          0  ISSUED:          0  USEFUL:      16752  USELESS:          0
STLB USEFUL LOAD PREFETCHES:      16752 PREFETCH ISSUED TO LOWER LEVEL:          0  ACCURACY: inf
STLB TIMELY PREFETCHES:      16752 LATE PREFETCHES: 134 DROPPED PREFETCHES: 0
STLB PREFETCHES SAME FILL-ORIGIN LEVEL: 0 DIFFERENT FILL-ORIGIN LEVEL: 0
STLB AVERAGE MISS LATENCY: 51.3648 cycles
STLB RQ	ACCESS:    1209067	FORWARD:          0	MERGED:     842488	TO_CACHE:     366579

STLB Hit, L1D data hit: 0
STLB Hit, L2C data hit: 0
STLB Hit, LLC data hit: 0
STLB Hit, LLC data miss: 0
STLB STLB hints to L2: 0
L1D TOTAL     ACCESS:    7990593  HIT:    6664079  MISS:    1326514  HIT %:    83.3991  MISS %:    16.6009   MPKI: 26.5303
L1D LOAD      ACCESS:    4905348  HIT:    4505868  MISS:     399480  HIT %:    91.8562  MISS %:    8.14376   MPKI: 7.9896
L1D RFO       ACCESS:    2108692  HIT:    2108684  MISS:          8  HIT %:    99.9996  MISS %: 0.000379382   MPKI: 0.00016
L1D PREFETCH  ACCESS:     976553  HIT:      49527  MISS:     927026  HIT %:    5.07161  MISS %:    94.9284   MPKI: 18.5405
AGUS PREFETCH L1 MISS: 0
L1D PREFETCH  REQUESTED:    2526628  ISSUED:    2376672  USEFUL:     927014  USELESS:          6
L1D USEFUL LOAD PREFETCHES:     927014 PREFETCH ISSUED TO LOWER LEVEL:    1092784  ACCURACY: 84.8305
L1D TIMELY PREFETCHES:     927014 LATE PREFETCHES: 165752 DROPPED PREFETCHES: 0
L1D PREFETCHES SAME FILL-ORIGIN LEVEL: 1092784 DIFFERENT FILL-ORIGIN LEVEL: 0
L1D AVERAGE MISS LATENCY: 185.138 cycles
L1D RQ	ACCESS:   15917883	FORWARD:          0	MERGED:   10530475	TO_CACHE:    5387404
L1D WQ	ACCESS:    2108708	FORWARD:          4	MERGED:          0	TO_CACHE:    2108708
L1D PQ	ACCESS:    1188336	FORWARD:          0	MERGED:          0	TO_CACHE:    1188336

L1D UNIQUE REGIONS ACCESSED: 0
L1D REGIONS CONFLICTS: 0
L1D Cross Page Prefetch Requests: 123072
L1D Same Page Prefetch Requests: 2218703
L1D ROI Sum of L1D PQ occupancy: 20377566
L1D PREFETCHES PUSHED FROM L2C: 0
L1I TOTAL     ACCESS:   11047010  HIT:   11047010  MISS:          0  HIT %:        100  MISS %:          0   MPKI: 0
L1I LOAD      ACCESS:   11047010  HIT:   11047010  MISS:          0  HIT %:        100  MISS %:          0   MPKI: 0
L1I PREFETCH  REQUESTED:          0  ISSUED:          0  USEFUL:          0  USELESS:          0
L1I USEFUL LOAD PREFETCHES:          0 PREFETCH ISSUED TO LOWER LEVEL:          0  ACCURACY: -nan
L1I TIMELY PREFETCHES:          0 LATE PREFETCHES: 0 DROPPED PREFETCHES: 0
L1I PREFETCHES SAME FILL-ORIGIN LEVEL: 0 DIFFERENT FILL-ORIGIN LEVEL: 0
L1I AVERAGE MISS LATENCY: -nan cycles
L1I RQ	ACCESS:   18113116	FORWARD:          0	MERGED:    7066106	TO_CACHE:   11047010

BTB TOTAL     ACCESS:    8514775  HIT:    8514752  MISS:         23  HIT %:    99.9997  MISS %: 0.000270119   MPKI: 0.00046
BTB BRANCH_DIRECT_JUMP	ACCESS:          0  HIT:          0  MISS:          0
BTB BRANCH_INDIRECT	ACCESS:          2  HIT:          1  MISS:          1
BTB BRANCH_CONDITIONAL	ACCESS:    8514753  HIT:    8514749  MISS:          4
BTB BRANCH_DIRECT_CALL	ACCESS:         10  HIT:          1  MISS:          9
BTB BRANCH_INDIRECT_CALL	ACCESS:          0  HIT:          0  MISS:          0
BTB BRANCH_RETURN	ACCESS:         10  HIT:          1  MISS:          9
BTB BRANCH_OTHER ACCESS:          0  HIT:          0  MISS:          0

L2C TOTAL     ACCESS:    1883034  HIT:     553925  MISS:    1329109  HIT %:    29.4166  MISS %:    70.5834   MPKI: 26.5822
L2C LOAD      ACCESS:     233728  HIT:          0  MISS:     233728  HIT %:          0  MISS %:        100   MPKI: 4.67456
L2C DATA LOAD MPKI: 4.67456
L2C INSTRUCTION LOAD MPKI: 0
L2C RFO       ACCESS:          8  HIT:          0  MISS:          8  HIT %:          0  MISS %:        100   MPKI: 0.00016
L2C PREFETCH  ACCESS:    1092778  HIT:          0  MISS:    1092778  HIT %:          0  MISS %:        100   MPKI: 21.8556
AGUS PREFETCH L1 MISS: 0
L2C DATA PREFETCH MPKI: 21.8556
L2C INSTRUCTION PREFETCH MPKI: 0
L2C WRITEBACK ACCESS:     535789  HIT:     535789  MISS:          0  HIT %:        100  MISS %:          0   MPKI: 0
L2C LOAD TRANSLATION ACCESS:       3845  HIT:       3376  MISS:        469  HIT %:    87.8023  MISS %:    12.1977   MPKI: 0.00938
L2C TRANSLATION FROM L1D PREFETCHER ACCESS:      16886  HIT:      14760  MISS:       2126  HIT %:    87.4097  MISS %:    12.5903   MPKI: 0.04252
L2C PREFETCH  REQUESTED:          0  ISSUED:          0  USEFUL:       2126  USELESS:    1092710
L2C USEFUL LOAD PREFETCHES:       2126 PREFETCH ISSUED TO LOWER LEVEL:    1092784  ACCURACY: 0.194549
L2C TIMELY PREFETCHES:       2126 LATE PREFETCHES: 0 DROPPED PREFETCHES: 0
L2C PREFETCHES SAME FILL-ORIGIN LEVEL: 0 DIFFERENT FILL-ORIGIN LEVEL: 0
L2C AVERAGE MISS LATENCY: 169.515 cycles
L2C RQ	ACCESS:     254467	FORWARD:          0	MERGED:          0	TO_CACHE:     254467
L2C WQ	ACCESS:     535789	FORWARD:          0	MERGED:          0	TO_CACHE:     535789
L2C PQ	ACCESS:    1092784	FORWARD:          0	MERGED:          0	TO_CACHE:    1092784

L2C Instructions Evicting Data 0
L2C Translations Evicting Data 2595
L2C Data Evicting Data 1323917
L2C Instructions Evicting Instructions 0
L2C Translations Evicting Instructions 0
L2C Data Evicting Instructions 0
L2C Instructions Evicting Translations 0
L2C Translations Evicting Translations 0
L2C Data Evicting Translations 2597
L2C Dense regions hint from L2: 0
PSCL5 TOTAL     ACCESS:      20731  HIT:      20731  MISS:          0  HIT %:        100  MISS %:          0   MPKI: 0
PSCL5 LOAD TRANSLATION ACCESS:       3845  HIT:       3845  MISS:          0  HIT %:        100  MISS %:          0   MPKI: 0
PSCL5 TRANSLATION FROM L1D PREFETCHER ACCESS:      16886  HIT:      16886  MISS:          0  HIT %:        100  MISS %:          0   MPKI: 0
PSCL5 PREFETCH  REQUESTED:          0  ISSUED:          0  USEFUL:          0  USELESS:          0
PSCL5 USEFUL LOAD PREFETCHES:          0 PREFETCH ISSUED TO LOWER LEVEL:          0  ACCURACY: -nan
PSCL5 TIMELY PREFETCHES:          0 LATE PREFETCHES: 0 DROPPED PREFETCHES: 0
PSCL5 PREFETCHES SAME FILL-ORIGIN LEVEL: 0 DIFFERENT FILL-ORIGIN LEVEL: 0

PSCL4 TOTAL     ACCESS:      20731  HIT:      20731  MISS:          0  HIT %:        100  MISS %:          0   MPKI: 0
PSCL4 LOAD TRANSLATION ACCESS:       3845  HIT:       3845  MISS:          0  HIT %:        100  MISS %:          0   MPKI: 0
PSCL4 TRANSLATION FROM L1D PREFETCHER ACCESS:      16886  HIT:      16886  MISS:          0  HIT %:        100  MISS %:          0   MPKI: 0
PSCL4 PREFETCH  REQUESTED:          0  ISSUED:          0  USEFUL:          0  USELESS:          0
PSCL4 USEFUL LOAD PREFETCHES:          0 PREFETCH ISSUED TO LOWER LEVEL:          0  ACCURACY: -nan
PSCL4 TIMELY PREFETCHES:          0 LATE PREFETCHES: 0 DROPPED PREFETCHES: 0
PSCL4 PREFETCHES SAME FILL-ORIGIN LEVEL: 0 DIFFERENT FILL-ORIGIN LEVEL: 0

PSCL3 TOTAL     ACCESS:      20731  HIT:      20731  MISS:          0  HIT %:        100  MISS %:          0   MPKI: 0
PSCL3 LOAD TRANSLATION ACCESS:       3845  HIT:       3845  MISS:          0  HIT %:        100  MISS %:          0   MPKI: 0
PSCL3 TRANSLATION FROM L1D PREFETCHER ACCESS:      16886  HIT:      16886  MISS:          0  HIT %:        100  MISS %:          0   MPKI: 0
PSCL3 PREFETCH  REQUESTED:          0  ISSUED:          0  USEFUL:          0  USELESS:          0
PSCL3 USEFUL LOAD PREFETCHES:          0 PREFETCH ISSUED TO LOWER LEVEL:          0  ACCURACY: -nan
PSCL3 TIMELY PREFETCHES:          0 LATE PREFETCHES: 0 DROPPED PREFETCHES: 0
PSCL3 PREFETCHES SAME FILL-ORIGIN LEVEL: 0 DIFFERENT FILL-ORIGIN LEVEL: 0

PSCL2 TOTAL     ACCESS:      20731  HIT:      20731  MISS:          0  HIT %:        100  MISS %:          0   MPKI: 0
PSCL2 LOAD TRANSLATION ACCESS:       3845  HIT:       3845  MISS:          0  HIT %:        100  MISS %:          0   MPKI: 0
PSCL2 TRANSLATION FROM L1D PREFETCHER ACCESS:      16886  HIT:      16886  MISS:          0  HIT %:        100  MISS %:          0   MPKI: 0
PSCL2 PREFETCH  REQUESTED:          0  ISSUED:          0  USEFUL:          0  USELESS:          0
PSCL2 USEFUL LOAD PREFETCHES:          0 PREFETCH ISSUED TO LOWER LEVEL:          0  ACCURACY: -nan
PSCL2 TIMELY PREFETCHES:          0 LATE PREFETCHES: 0 DROPPED PREFETCHES: 0
PSCL2 PREFETCHES SAME FILL-ORIGIN LEVEL: 0 DIFFERENT FILL-ORIGIN LEVEL: 0

LLC TOTAL     ACCESS:    1864667  HIT:     535558  MISS:    1329109  HIT %:    28.7214  MISS %:    71.2786   MPKI: 26.5822
LLC LOAD      ACCESS:     233728  HIT:          0  MISS:     233728  HIT %:          0  MISS %:        100   MPKI: 4.67456
LLC RFO       ACCESS:          8  HIT:          0  MISS:          8  HIT %:          0  MISS %:        100   MPKI: 0.00016
LLC PREFETCH  ACCESS:    1092778  HIT:          0  MISS:    1092778  HIT %:          0  MISS %:        100   MPKI: 21.8556
AGUS PREFETCH L1 MISS: 0
LLC WRITEBACK ACCESS:     535558  HIT:     535558  MISS:          0  HIT %:        100  MISS %:          0   MPKI: 0
LLC LOAD TRANSLATION ACCESS:        469  HIT:          0  MISS:        469  HIT %:          0  MISS %:        100   MPKI: 0.00938
LLC TRANSLATION FROM L1D PREFETCHER ACCESS:       2126  HIT:          0  MISS:       2126  HIT %:          0  MISS %:        100   MPKI: 0.04252
LLC PREFETCH  REQUESTED:          0  ISSUED:          0  USEFUL:          0  USELESS:    1094640
LLC USEFUL LOAD PREFETCHES:          0 PREFETCH ISSUED TO LOWER LEVEL:    1092784  ACCURACY: 0
LLC TIMELY PREFETCHES:          0 LATE PREFETCHES: 0 DROPPED PREFETCHES: 0
LLC PREFETCHES SAME FILL-ORIGIN LEVEL: 0 DIFFERENT FILL-ORIGIN LEVEL: 0
LLC AVERAGE MISS LATENCY: 139.515 cycles
LLC RQ	ACCESS:     236331	FORWARD:          0	MERGED:          0	TO_CACHE:     236331
LLC WQ	ACCESS:     535558	FORWARD:          0	MERGED:          0	TO_CACHE:     535558
LLC PQ	ACCESS:    1092784	FORWARD:          0	MERGED:          0	TO_CACHE:    1092784

LLC Dense regions hint to LLC: 0

RAW hits: 4
Loads Generated: 15917891
Loads sent to L1D: 15917883
Stores Generated: 2108708
Stores sent to L1D: 2108708
Major fault: 0 Minor fault: 8227
Allocated PAGES: 8227

stream: 
stream:times selected: 662611
stream:pref_filled: 1552030
stream:pref_useful: 1552009
stream:pref_late: 160551
stream:misses: 60629
stream:misses_by_poll: 0

CS: 
CS:times selected: 88459
CS:pref_filled: 57815
CS:pref_useful: 57815
CS:pref_late: 141
CS:misses: 125451
CS:misses_by_poll: 1

CPLX: 
CPLX:times selected: 574043
CPLX:pref_filled: 145581
CPLX:pref_useful: 145580
CPLX:pref_late: 1870
CPLX:misses: 942550
CPLX:misses_by_poll: 568

NL_L1: 
NL:times selected: 238
NL:pref_filled: 202
NL:pref_useful: 202
NL:pref_late: 4
NL:misses: 398
NL:misses_by_poll: 0

Coverage: 69.8845
total selections: 1325351
total_filled: 927026
total_useful: 927014
total_late: 163578
total_polluted: 569
total_misses_after_warmup: 881535
conflicts: 9

test: 41137
ISB Prefetcher final stats
Training Unit Size: 2
Addr table size: 371328 371328


Triggers: 662612
No Prediction: 375839 56.7208
Stream end: 184884
No translation: 187531667 28301.9
Predictions: 320475 48.3654


Stream divergence: 178588 26.9521
Stream divergence -- new stream: 0

DRAM Statistics
 CHANNEL 0
 RQ ROW_BUFFER_HIT:     898946  ROW_BUFFER_MISS:     430163
 DBUS_CONGESTED:        167
 WQ ROW_BUFFER_HIT:     253059  ROW_BUFFER_MISS:     281732  FULL:          0

 AVG_CONGESTED_CYCLE: 5
 All warmup complete: 2
Channel 0 Bank busy for read cycles: 0
Channel 0 Bank busy for write cycles: 0
Channel 0
Rank 0
0banks busy for read cycles: 21086201
0banks busy for write cycles: 11753
1banks busy for read cycles: 6348058
1banks busy for write cycles: 1809365
2banks busy for read cycles: 3403393
2banks busy for write cycles: 98220
3banks busy for read cycles: 2372417
3banks busy for write cycles: 101218
4banks busy for read cycles: 2220817
4banks busy for write cycles: 108963
5banks busy for read cycles: 2739740
5banks busy for write cycles: 124795
6banks busy for read cycles: 3683590
6banks busy for write cycles: 180715
7banks busy for read cycles: 3836594
7banks busy for write cycles: 830716
8banks busy for read cycles: 2276353
8banks busy for write cycles: 8827582

CPU 0 Branch Prediction Accuracy: 99.8647% MPKI: 0.2304 Average ROB Occupancy at Mispredict: 94.8142
Branch types
NOT_BRANCH: 41485292 82.9706%
BRANCH_DIRECT_JUMP: 0 0%
BRANCH_INDIRECT: 2 4e-06%
BRANCH_CONDITIONAL: 8514767 17.0295%
BRANCH_DIRECT_CALL: 10 2e-05%
BRANCH_INDIRECT_CALL: 0 0%
BRANCH_RETURN: 10 2e-05%
BRANCH_OTHER: 0 0%

DRAM PAGES: 1048576
Allocated PAGES: 8227
