
*** ChampSim Multicore Out-of-Order Simulator ***

Warmup Instructions: 50000000
Simulation Instructions: 50000000
Number of CPUs: 1
LLC sets: 2048
LLC ways: 16
Off-chip DRAM Size: 4096 MB Channels: 1 Width: 64-bit Data Rate: 6400 MT/s
CPU 0 runs ./traces/SPEC-CPU2017/471.omnetpp-188B.champsimtrace.xz
.xz
CPU 0 Bimodal branch predictor
BTB has LRU replacement policy
ITLB has LRU replacement policy
DTLB has LRU replacement policy
STLB has LRU replacement policy
L1I has LRU replacement policy
L1D has LRU replacement policy
L2C has LRU replacement policy
LLC has LRU replacement policy
Heartbeat CPU 0 instructions: 10000001 cycles: 3277415 heartbeat IPC: 3.05119 cumulative IPC: 3.05119 (Simulation time: 0 hr 1 min 4 sec) 
Heartbeat CPU 0 instructions: 20000000 cycles: 6508926 heartbeat IPC: 3.09453 cumulative IPC: 3.0727 (Simulation time: 0 hr 2 min 9 sec) 
Heartbeat CPU 0 instructions: 30000000 cycles: 9778383 heartbeat IPC: 3.05861 cumulative IPC: 3.06799 (Simulation time: 0 hr 3 min 17 sec) 
Heartbeat CPU 0 instructions: 40000000 cycles: 13025852 heartbeat IPC: 3.07932 cumulative IPC: 3.07082 (Simulation time: 0 hr 4 min 27 sec) 
Heartbeat CPU 0 instructions: 50000003 cycles: 16286218 heartbeat IPC: 3.06714 cumulative IPC: 3.07008 (Simulation time: 0 hr 5 min 23 sec) 

Warmup complete CPU 0 instructions: 50000003 cycles: 16286218 (Simulation time: 0 hr 5 min 23 sec) 

Heartbeat CPU 0 instructions: 60000000 cycles: 59663986 heartbeat IPC: 0.230533 cumulative IPC: 0.230533 (Simulation time: 0 hr 6 min 53 sec) 
Heartbeat CPU 0 instructions: 70000001 cycles: 102197798 heartbeat IPC: 0.235107 cumulative IPC: 0.232797 (Simulation time: 0 hr 8 min 22 sec) 
Heartbeat CPU 0 instructions: 80000000 cycles: 146862311 heartbeat IPC: 0.223891 cumulative IPC: 0.229751 (Simulation time: 0 hr 9 min 48 sec) 
Heartbeat CPU 0 instructions: 90000003 cycles: 192123749 heartbeat IPC: 0.220939 cumulative IPC: 0.227483 (Simulation time: 0 hr 10 min 56 sec) 
Heartbeat CPU 0 instructions: 100000000 cycles: 237943697 heartbeat IPC: 0.218245 cumulative IPC: 0.225573 (Simulation time: 0 hr 12 min 0 sec) 
Finished CPU 0 instructions: 50000000 cycles: 221657488 cumulative IPC: 0.225573 (Simulation time: 0 hr 12 min 0 sec) 

ChampSim completed all CPUs

Region of Interest Statistics

CPU 0 cumulative IPC: 0.225573 instructions: 50000000 cycles: 221657488
ITLB TOTAL     ACCESS:    8725701  HIT:    8708498  MISS:      17203  HIT %:    99.8028  MISS %:   0.197153   MPKI: 0.34406
ITLB LOAD TRANSLATION ACCESS:    8725701  HIT:    8708498  MISS:      17203  HIT %:    99.8028  MISS %:   0.197153   MPKI: 0.34406
ITLB PREFETCH  REQUESTED:          0  ISSUED:          0  USEFUL:          0  USELESS:          0
ITLB USEFUL LOAD PREFETCHES:          0 PREFETCH ISSUED TO LOWER LEVEL:          0  ACCURACY: -nan
ITLB TIMELY PREFETCHES:          0 LATE PREFETCHES: 0 DROPPED PREFETCHES: 0
ITLB PREFETCHES SAME FILL-ORIGIN LEVEL: 0 DIFFERENT FILL-ORIGIN LEVEL: 0
ITLB AVERAGE MISS LATENCY: 10.9776 cycles
ITLB RQ	ACCESS:    9817918	FORWARD:          0	MERGED:    1084602	TO_CACHE:    8733316

DTLB TOTAL     ACCESS:   14660771  HIT:   13703209  MISS:     957562  HIT %:    93.4685  MISS %:    6.53146   MPKI: 19.1512
DTLB LOAD TRANSLATION ACCESS:   14660771  HIT:   13703209  MISS:     957562  HIT %:    93.4685  MISS %:    6.53146   MPKI: 19.1512
DTLB PREFETCH  REQUESTED:          0  ISSUED:          0  USEFUL:          0  USELESS:          0
DTLB USEFUL LOAD PREFETCHES:          0 PREFETCH ISSUED TO LOWER LEVEL:          0  ACCURACY: -nan
DTLB TIMELY PREFETCHES:          0 LATE PREFETCHES: 0 DROPPED PREFETCHES: 0
DTLB PREFETCHES SAME FILL-ORIGIN LEVEL: 0 DIFFERENT FILL-ORIGIN LEVEL: 0
DTLB AVERAGE MISS LATENCY: 23.8211 cycles
DTLB RQ	ACCESS:   17853869	FORWARD:          0	MERGED:    3146975	TO_CACHE:   14706894

STLB TOTAL     ACCESS:     974765  HIT:     754277  MISS:     220488  HIT %:    77.3804  MISS %:    22.6196   MPKI: 4.40976
STLB LOAD TRANSLATION ACCESS:     974765  HIT:     754277  MISS:     220488  HIT %:    77.3804  MISS %:    22.6196   MPKI: 4.40976
STLB PREFETCH  REQUESTED:          0  ISSUED:          0  USEFUL:          0  USELESS:          0
STLB USEFUL LOAD PREFETCHES:          0 PREFETCH ISSUED TO LOWER LEVEL:          0  ACCURACY: -nan
STLB TIMELY PREFETCHES:          0 LATE PREFETCHES: 0 DROPPED PREFETCHES: 0
STLB PREFETCHES SAME FILL-ORIGIN LEVEL: 0 DIFFERENT FILL-ORIGIN LEVEL: 0
STLB AVERAGE MISS LATENCY: 63.9276 cycles
STLB RQ	ACCESS:     974765	FORWARD:          0	MERGED:          0	TO_CACHE:     974765

STLB Hit, L1D data hit: 0
STLB Hit, L2C data hit: 0
STLB Hit, LLC data hit: 0
STLB Hit, LLC data miss: 0
STLB STLB hints to L2: 0
L1D TOTAL     ACCESS:   17291433  HIT:   16119767  MISS:    1171666  HIT %:     93.224  MISS %:    6.77599   MPKI: 23.4333
L1D LOAD      ACCESS:    9458259  HIT:    8460052  MISS:     998207  HIT %:    89.4462  MISS %:    10.5538   MPKI: 19.9641
L1D RFO       ACCESS:    7833174  HIT:    7659715  MISS:     173459  HIT %:    97.7856  MISS %:    2.21442   MPKI: 3.46918
L1D PREFETCH  REQUESTED:          0  ISSUED:          0  USEFUL:          0  USELESS:          0
L1D USEFUL LOAD PREFETCHES:          0 PREFETCH ISSUED TO LOWER LEVEL:          0  ACCURACY: -nan
L1D TIMELY PREFETCHES:          0 LATE PREFETCHES: 0 DROPPED PREFETCHES: 0
L1D PREFETCHES SAME FILL-ORIGIN LEVEL: 0 DIFFERENT FILL-ORIGIN LEVEL: 0
L1D AVERAGE MISS LATENCY: 159.191 cycles
L1D RQ	ACCESS:   14053307	FORWARD:          0	MERGED:    4057474	TO_CACHE:    9561416
L1D WQ	ACCESS:    8476021	FORWARD:     434417	MERGED:     183568	TO_CACHE:    8292453

L1D UNIQUE REGIONS ACCESSED: 0
L1D REGIONS CONFLICTS: 0
L1D Cross Page Prefetch Requests: 0
L1D Same Page Prefetch Requests: 0
L1D ROI Sum of L1D PQ occupancy: 0
L1D PREFETCHES PUSHED FROM L2C: 0
L1I TOTAL     ACCESS:    9817623  HIT:    9816082  MISS:       1541  HIT %:    99.9843  MISS %:  0.0156963   MPKI: 0.03082
L1I LOAD      ACCESS:    9817623  HIT:    9816082  MISS:       1541  HIT %:    99.9843  MISS %:  0.0156963   MPKI: 0.03082
L1I PREFETCH  REQUESTED:          0  ISSUED:          0  USEFUL:          0  USELESS:          0
L1I USEFUL LOAD PREFETCHES:          0 PREFETCH ISSUED TO LOWER LEVEL:          0  ACCURACY: -nan
L1I TIMELY PREFETCHES:          0 LATE PREFETCHES: 0 DROPPED PREFETCHES: 0
L1I PREFETCHES SAME FILL-ORIGIN LEVEL: 0 DIFFERENT FILL-ORIGIN LEVEL: 0
L1I AVERAGE MISS LATENCY: 152.092 cycles
L1I RQ	ACCESS:   14784993	FORWARD:          0	MERGED:    4967075	TO_CACHE:    9817918

BTB TOTAL     ACCESS:   10008119  HIT:    9487971  MISS:     520148  HIT %:    94.8027  MISS %:    5.19726   MPKI: 10.403
BTB BRANCH_DIRECT_JUMP	ACCESS:     964405  HIT:     964243  MISS:        162
BTB BRANCH_INDIRECT	ACCESS:     140341  HIT:     116325  MISS:      24016
BTB BRANCH_CONDITIONAL	ACCESS:    5906166  HIT:    5905777  MISS:        389
BTB BRANCH_DIRECT_CALL	ACCESS:    1294152  HIT:    1293861  MISS:        291
BTB BRANCH_INDIRECT_CALL	ACCESS:     204449  HIT:     203146  MISS:       1303
BTB BRANCH_RETURN	ACCESS:    1498606  HIT:    1004619  MISS:     493987
BTB BRANCH_OTHER ACCESS:          0  HIT:          0  MISS:          0

L2C TOTAL     ACCESS:    1894354  HIT:     757846  MISS:    1136508  HIT %:    40.0055  MISS %:    59.9945   MPKI: 22.7302
L2C LOAD      ACCESS:     999739  HIT:     112867  MISS:     886872  HIT %:    11.2896  MISS %:    88.7104   MPKI: 17.7374
L2C DATA LOAD MPKI: 17.7119
L2C INSTRUCTION LOAD MPKI: 0.02554
L2C RFO       ACCESS:     173459  HIT:      10090  MISS:     163369  HIT %:    5.81694  MISS %:    94.1831   MPKI: 3.26738
L2C WRITEBACK ACCESS:     488913  HIT:     487672  MISS:       1241  HIT %:    99.7462  MISS %:   0.253828   MPKI: 0.02482
L2C LOAD TRANSLATION ACCESS:     232243  HIT:     147217  MISS:      85026  HIT %:    63.3892  MISS %:    36.6108   MPKI: 1.70052
L2C PREFETCH  REQUESTED:          0  ISSUED:          0  USEFUL:          0  USELESS:          0
L2C USEFUL LOAD PREFETCHES:          0 PREFETCH ISSUED TO LOWER LEVEL:          0  ACCURACY: -nan
L2C TIMELY PREFETCHES:          0 LATE PREFETCHES: 0 DROPPED PREFETCHES: 0
L2C PREFETCHES SAME FILL-ORIGIN LEVEL: 0 DIFFERENT FILL-ORIGIN LEVEL: 0
L2C AVERAGE MISS LATENCY: 155.265 cycles
L2C RQ	ACCESS:    1405450	FORWARD:          0	MERGED:          0	TO_CACHE:    1405441
L2C WQ	ACCESS:     488913	FORWARD:          9	MERGED:          0	TO_CACHE:     488913

L2C Instructions Evicting Data 1192
L2C Translations Evicting Data 78522
L2C Data Evicting Data 968508
L2C Instructions Evicting Instructions 3
L2C Translations Evicting Instructions 77
L2C Data Evicting Instructions 1198
L2C Instructions Evicting Translations 82
L2C Translations Evicting Translations 6427
L2C Data Evicting Translations 79258
L2C Dense regions hint from L2: 0
PSCL5 TOTAL     ACCESS:     220488  HIT:     220488  MISS:          0  HIT %:        100  MISS %:          0   MPKI: 0
PSCL5 LOAD TRANSLATION ACCESS:     220488  HIT:     220488  MISS:          0  HIT %:        100  MISS %:          0   MPKI: 0
PSCL5 PREFETCH  REQUESTED:          0  ISSUED:          0  USEFUL:          0  USELESS:          0
PSCL5 USEFUL LOAD PREFETCHES:          0 PREFETCH ISSUED TO LOWER LEVEL:          0  ACCURACY: -nan
PSCL5 TIMELY PREFETCHES:          0 LATE PREFETCHES: 0 DROPPED PREFETCHES: 0
PSCL5 PREFETCHES SAME FILL-ORIGIN LEVEL: 0 DIFFERENT FILL-ORIGIN LEVEL: 0

PSCL4 TOTAL     ACCESS:     220488  HIT:     220488  MISS:          0  HIT %:        100  MISS %:          0   MPKI: 0
PSCL4 LOAD TRANSLATION ACCESS:     220488  HIT:     220488  MISS:          0  HIT %:        100  MISS %:          0   MPKI: 0
PSCL4 PREFETCH  REQUESTED:          0  ISSUED:          0  USEFUL:          0  USELESS:          0
PSCL4 USEFUL LOAD PREFETCHES:          0 PREFETCH ISSUED TO LOWER LEVEL:          0  ACCURACY: -nan
PSCL4 TIMELY PREFETCHES:          0 LATE PREFETCHES: 0 DROPPED PREFETCHES: 0
PSCL4 PREFETCHES SAME FILL-ORIGIN LEVEL: 0 DIFFERENT FILL-ORIGIN LEVEL: 0

PSCL3 TOTAL     ACCESS:     220488  HIT:     220488  MISS:          0  HIT %:        100  MISS %:          0   MPKI: 0
PSCL3 LOAD TRANSLATION ACCESS:     220488  HIT:     220488  MISS:          0  HIT %:        100  MISS %:          0   MPKI: 0
PSCL3 PREFETCH  REQUESTED:          0  ISSUED:          0  USEFUL:          0  USELESS:          0
PSCL3 USEFUL LOAD PREFETCHES:          0 PREFETCH ISSUED TO LOWER LEVEL:          0  ACCURACY: -nan
PSCL3 TIMELY PREFETCHES:          0 LATE PREFETCHES: 0 DROPPED PREFETCHES: 0
PSCL3 PREFETCHES SAME FILL-ORIGIN LEVEL: 0 DIFFERENT FILL-ORIGIN LEVEL: 0

PSCL2 TOTAL     ACCESS:     220488  HIT:     208732  MISS:      11756  HIT %:    94.6682  MISS %:    5.33181   MPKI: 0.23512
PSCL2 LOAD TRANSLATION ACCESS:     220488  HIT:     208732  MISS:      11756  HIT %:    94.6682  MISS %:    5.33181   MPKI: 0.23512
PSCL2 PREFETCH  REQUESTED:          0  ISSUED:          0  USEFUL:          0  USELESS:          0
PSCL2 USEFUL LOAD PREFETCHES:          0 PREFETCH ISSUED TO LOWER LEVEL:          0  ACCURACY: -nan
PSCL2 TIMELY PREFETCHES:          0 LATE PREFETCHES: 0 DROPPED PREFETCHES: 0
PSCL2 PREFETCHES SAME FILL-ORIGIN LEVEL: 0 DIFFERENT FILL-ORIGIN LEVEL: 0

LLC TOTAL     ACCESS:    1573332  HIT:     693407  MISS:     879925  HIT %:    44.0725  MISS %:    55.9275   MPKI: 17.5985
LLC LOAD      ACCESS:     886872  HIT:     174816  MISS:     712056  HIT %:    19.7115  MISS %:    80.2885   MPKI: 14.2411
LLC RFO       ACCESS:     163369  HIT:      24539  MISS:     138830  HIT %:    15.0206  MISS %:    84.9794   MPKI: 2.7766
LLC WRITEBACK ACCESS:     438065  HIT:     437452  MISS:        613  HIT %:    99.8601  MISS %:   0.139934   MPKI: 0.01226
LLC LOAD TRANSLATION ACCESS:      85026  HIT:      56600  MISS:      28426  HIT %:    66.5679  MISS %:    33.4321   MPKI: 0.56852
LLC PREFETCH  REQUESTED:          0  ISSUED:          0  USEFUL:          0  USELESS:          0
LLC USEFUL LOAD PREFETCHES:          0 PREFETCH ISSUED TO LOWER LEVEL:          0  ACCURACY: -nan
LLC TIMELY PREFETCHES:          0 LATE PREFETCHES: 0 DROPPED PREFETCHES: 0
LLC PREFETCHES SAME FILL-ORIGIN LEVEL: 0 DIFFERENT FILL-ORIGIN LEVEL: 0
LLC AVERAGE MISS LATENCY: 161.795 cycles
LLC RQ	ACCESS:    1135267	FORWARD:          0	MERGED:          0	TO_CACHE:    1135267
LLC WQ	ACCESS:     438065	FORWARD:          0	MERGED:          0	TO_CACHE:     438065

LLC Dense regions hint to LLC: 0

RAW hits: 822128
Loads Generated: 14875435
Loads sent to L1D: 14053307
Stores Generated: 8476009
Stores sent to L1D: 8476021
Major fault: 0 Minor fault: 33441
Allocated PAGES: 33441

DRAM Statistics
 CHANNEL 0
 RQ ROW_BUFFER_HIT:      92183  ROW_BUFFER_MISS:     787124
 DBUS_CONGESTED:        576
 WQ ROW_BUFFER_HIT:     144750  ROW_BUFFER_MISS:     216807  FULL:          0

 AVG_CONGESTED_CYCLE: 5
 All warmup complete: 2
Channel 0 Bank busy for read cycles: 0
Channel 0 Bank busy for write cycles: 0
Channel 0
Rank 0
0banks busy for read cycles: 83791017
0banks busy for write cycles: 152822
1banks busy for read cycles: 65087699
1banks busy for write cycles: 26132410
2banks busy for read cycles: 18508721
2banks busy for write cycles: 13166013
3banks busy for read cycles: 5486314
3banks busy for write cycles: 5528752
4banks busy for read cycles: 910819
4banks busy for write cycles: 1971585
5banks busy for read cycles: 77688
5banks busy for write cycles: 624043
6banks busy for read cycles: 11344
6banks busy for write cycles: 164618
7banks busy for read cycles: 2111
7banks busy for write cycles: 35993
8banks busy for read cycles: 298
8banks busy for write cycles: 5242

CPU 0 Branch Prediction Accuracy: 94.0755% MPKI: 14.2353 Average ROB Occupancy at Mispredict: 26.3506
Branch types
NOT_BRANCH: 37985796 75.9716%
BRANCH_DIRECT_JUMP: 964405 1.92881%
BRANCH_INDIRECT: 140341 0.280682%
BRANCH_CONDITIONAL: 7911981 15.824%
BRANCH_DIRECT_CALL: 1294152 2.5883%
BRANCH_INDIRECT_CALL: 204449 0.408898%
BRANCH_RETURN: 1498606 2.99721%
BRANCH_OTHER: 0 0%

DRAM PAGES: 1048576
Allocated PAGES: 33441
