
*** ChampSim Multicore Out-of-Order Simulator ***

Warmup Instructions: 50000000
Simulation Instructions: 50000000
Number of CPUs: 1
LLC sets: 2048
LLC ways: 16
Off-chip DRAM Size: 4096 MB Channels: 1 Width: 64-bit Data Rate: 6400 MT/s
CPU 0 runs ./traces/SPEC-CPU2017/471.omnetpp-188B.champsimtrace.xz
.xz
CPU 0 Bimodal branch predictor
BTB has LRU replacement policy
ITLB has LRU replacement policy
DTLB has LRU replacement policy
STLB has LRU replacement policy
L1I has LRU replacement policy
L1D has LRU replacement policy
L2C has LRU replacement policy
LLC has LRU replacement policy
Heartbeat CPU 0 instructions: 10000001 cycles: 3259408 heartbeat IPC: 3.06804 cumulative IPC: 3.06804 (Simulation time: 0 hr 8 min 49 sec) 
Heartbeat CPU 0 instructions: 20000000 cycles: 6479378 heartbeat IPC: 3.10562 cumulative IPC: 3.08672 (Simulation time: 0 hr 17 min 46 sec) 
Heartbeat CPU 0 instructions: 30000000 cycles: 9708669 heartbeat IPC: 3.09665 cumulative IPC: 3.09002 (Simulation time: 0 hr 24 min 10 sec) 
Heartbeat CPU 0 instructions: 40000000 cycles: 12934568 heartbeat IPC: 3.09991 cumulative IPC: 3.09249 (Simulation time: 0 hr 30 min 29 sec) 
Heartbeat CPU 0 instructions: 50000003 cycles: 16140374 heartbeat IPC: 3.11934 cumulative IPC: 3.09782 (Simulation time: 0 hr 36 min 0 sec) 

Warmup complete CPU 0 instructions: 50000003 cycles: 16140374 (Simulation time: 0 hr 36 min 0 sec) 

Heartbeat CPU 0 instructions: 60000000 cycles: 49929602 heartbeat IPC: 0.295952 cumulative IPC: 0.295952 (Simulation time: 0 hr 38 min 36 sec) 
Heartbeat CPU 0 instructions: 70000001 cycles: 82176491 heartbeat IPC: 0.310107 cumulative IPC: 0.302865 (Simulation time: 0 hr 41 min 4 sec) 
Heartbeat CPU 0 instructions: 80000000 cycles: 114643269 heartbeat IPC: 0.308007 cumulative IPC: 0.30456 (Simulation time: 0 hr 43 min 19 sec) 
Heartbeat CPU 0 instructions: 90000003 cycles: 146648539 heartbeat IPC: 0.312449 cumulative IPC: 0.306494 (Simulation time: 0 hr 45 min 30 sec) 
Heartbeat CPU 0 instructions: 100000000 cycles: 179061263 heartbeat IPC: 0.308521 cumulative IPC: 0.306897 (Simulation time: 0 hr 47 min 49 sec) 
Finished CPU 0 instructions: 50000000 cycles: 162920898 cumulative IPC: 0.306897 (Simulation time: 0 hr 47 min 49 sec) 

ChampSim completed all CPUs

Region of Interest Statistics

CPU 0 cumulative IPC: 0.306897 instructions: 50000000 cycles: 162920898
ITLB TOTAL     ACCESS:    8717461  HIT:    8700258  MISS:      17203  HIT %:    99.8027  MISS %:    0.19734   MPKI: 0.34406
ITLB LOAD TRANSLATION ACCESS:    8717461  HIT:    8700258  MISS:      17203  HIT %:    99.8027  MISS %:    0.19734   MPKI: 0.34406
ITLB PREFETCH  REQUESTED:          0  ISSUED:          0  USEFUL:          0  USELESS:          0
ITLB USEFUL LOAD PREFETCHES:          0 PREFETCH ISSUED TO LOWER LEVEL:          0  ACCURACY: -nan
ITLB TIMELY PREFETCHES:          0 LATE PREFETCHES: 0 DROPPED PREFETCHES: 0
ITLB PREFETCHES SAME FILL-ORIGIN LEVEL: 0 DIFFERENT FILL-ORIGIN LEVEL: 0
ITLB AVERAGE MISS LATENCY: 11.695 cycles
ITLB RQ	ACCESS:    9806668	FORWARD:          0	MERGED:    1081589	TO_CACHE:    8725079

DTLB TOTAL     ACCESS:   14714734  HIT:   13756903  MISS:     957831  HIT %:    93.4907  MISS %:    6.50933   MPKI: 19.1566
DTLB LOAD TRANSLATION ACCESS:   14714734  HIT:   13756903  MISS:     957831  HIT %:    93.4907  MISS %:    6.50933   MPKI: 19.1566
DTLB PREFETCH  REQUESTED:          0  ISSUED:          0  USEFUL:          0  USELESS:          0
DTLB USEFUL LOAD PREFETCHES:          0 PREFETCH ISSUED TO LOWER LEVEL:          0  ACCURACY: -nan
DTLB TIMELY PREFETCHES:          0 LATE PREFETCHES: 0 DROPPED PREFETCHES: 0
DTLB PREFETCHES SAME FILL-ORIGIN LEVEL: 0 DIFFERENT FILL-ORIGIN LEVEL: 0
DTLB AVERAGE MISS LATENCY: 17.1973 cycles
DTLB RQ	ACCESS:   17870596	FORWARD:          0	MERGED:    3110969	TO_CACHE:   14759627

STLB TOTAL     ACCESS:    4134688  HIT:    3844150  MISS:     290538  HIT %:    92.9732  MISS %:    7.02684   MPKI: 5.81076
STLB LOAD TRANSLATION ACCESS:     975034  HIT:     871760  MISS:     103274  HIT %:    89.4082  MISS %:    10.5918   MPKI: 2.06548
STLB TRANSLATION FROM L1D PREFETCHER ACCESS:    3159654  HIT:    2972390  MISS:     187264  HIT %:    94.0733  MISS %:    5.92672   MPKI: 3.74528
STLB PREFETCH  REQUESTED:          0  ISSUED:          0  USEFUL:     152864  USELESS:      34325
STLB USEFUL LOAD PREFETCHES:     152864 PREFETCH ISSUED TO LOWER LEVEL:          0  ACCURACY: inf
STLB TIMELY PREFETCHES:     152864 LATE PREFETCHES: 2486 DROPPED PREFETCHES: 0
STLB PREFETCHES SAME FILL-ORIGIN LEVEL: 0 DIFFERENT FILL-ORIGIN LEVEL: 0
STLB AVERAGE MISS LATENCY: 79.0333 cycles
STLB RQ	ACCESS:    4729320	FORWARD:          0	MERGED:     588135	TO_CACHE:    4141185

STLB Hit, L1D data hit: 0
STLB Hit, L2C data hit: 0
STLB Hit, LLC data hit: 0
STLB Hit, LLC data miss: 0
STLB STLB hints to L2: 0
L1D TOTAL     ACCESS:   21164744  HIT:   19261333  MISS:    1903411  HIT %:    91.0067  MISS %:    8.99331   MPKI: 38.0682
L1D LOAD      ACCESS:    9516621  HIT:    9021920  MISS:     494701  HIT %:    94.8017  MISS %:    5.19828   MPKI: 9.89402
L1D RFO       ACCESS:    7985615  HIT:    7844657  MISS:     140958  HIT %:    98.2349  MISS %:    1.76515   MPKI: 2.81916
L1D PREFETCH  ACCESS:    3662508  HIT:    2394756  MISS:    1267752  HIT %:    65.3857  MISS %:    34.6143   MPKI: 25.355
AGUS PREFETCH L1 MISS: 0
L1D PREFETCH  REQUESTED:    7551954  ISSUED:    7508755  USEFUL:     581586  USELESS:     686201
L1D USEFUL LOAD PREFETCHES:     581586 PREFETCH ISSUED TO LOWER LEVEL:    1332817  ACCURACY: 43.6358
L1D TIMELY PREFETCHES:     581586 LATE PREFETCHES: 62221 DROPPED PREFETCHES: 0
L1D PREFETCHES SAME FILL-ORIGIN LEVEL: 1332817 DIFFERENT FILL-ORIGIN LEVEL: 0
L1D AVERAGE MISS LATENCY: 156.801 cycles
L1D RQ	ACCESS:   14104498	FORWARD:          0	MERGED:    4065153	TO_CACHE:    9575093
L1D WQ	ACCESS:    8476021	FORWARD:     464435	MERGED:     180518	TO_CACHE:    8295503
L1D PQ	ACCESS:    3754469	FORWARD:          0	MERGED:          0	TO_CACHE:    3754286

L1D UNIQUE REGIONS ACCESSED: 0
L1D REGIONS CONFLICTS: 0
L1D Cross Page Prefetch Requests: 3095780
L1D Same Page Prefetch Requests: 4060938
L1D ROI Sum of L1D PQ occupancy: 83194939
L1D PREFETCHES PUSHED FROM L2C: 0
L1I TOTAL     ACCESS:    9806370  HIT:    9804829  MISS:       1541  HIT %:    99.9843  MISS %:  0.0157143   MPKI: 0.03082
L1I LOAD      ACCESS:    9806370  HIT:    9804829  MISS:       1541  HIT %:    99.9843  MISS %:  0.0157143   MPKI: 0.03082
L1I PREFETCH  REQUESTED:          0  ISSUED:          0  USEFUL:          0  USELESS:          0
L1I USEFUL LOAD PREFETCHES:          0 PREFETCH ISSUED TO LOWER LEVEL:          0  ACCURACY: -nan
L1I TIMELY PREFETCHES:          0 LATE PREFETCHES: 0 DROPPED PREFETCHES: 0
L1I PREFETCHES SAME FILL-ORIGIN LEVEL: 0 DIFFERENT FILL-ORIGIN LEVEL: 0
L1I AVERAGE MISS LATENCY: 160.079 cycles
L1I RQ	ACCESS:   14762626	FORWARD:          0	MERGED:    4955958	TO_CACHE:    9806668

BTB TOTAL     ACCESS:   10008119  HIT:    9487971  MISS:     520148  HIT %:    94.8027  MISS %:    5.19726   MPKI: 10.403
BTB BRANCH_DIRECT_JUMP	ACCESS:     964405  HIT:     964243  MISS:        162
BTB BRANCH_INDIRECT	ACCESS:     140341  HIT:     116325  MISS:      24016
BTB BRANCH_CONDITIONAL	ACCESS:    5906166  HIT:    5905777  MISS:        389
BTB BRANCH_DIRECT_CALL	ACCESS:    1294152  HIT:    1293861  MISS:        291
BTB BRANCH_INDIRECT_CALL	ACCESS:     204449  HIT:     203146  MISS:       1303
BTB BRANCH_RETURN	ACCESS:    1498606  HIT:    1004619  MISS:     493987
BTB BRANCH_OTHER ACCESS:          0  HIT:          0  MISS:          0

L2C TOTAL     ACCESS:    2726279  HIT:    1067915  MISS:    1658364  HIT %:    39.1712  MISS %:    60.8288   MPKI: 33.1673
L2C LOAD      ACCESS:     433985  HIT:     140983  MISS:     293002  HIT %:    32.4857  MISS %:    67.5143   MPKI: 5.86004
L2C DATA LOAD MPKI: 5.833
L2C INSTRUCTION LOAD MPKI: 0.02704
L2C RFO       ACCESS:     138113  HIT:      15439  MISS:     122674  HIT %:    11.1785  MISS %:    88.8215   MPKI: 2.45348
L2C PREFETCH  ACCESS:    1332784  HIT:     219086  MISS:    1113698  HIT %:    16.4382  MISS %:    83.5618   MPKI: 22.274
AGUS PREFETCH L1 MISS: 0
L2C DATA PREFETCH MPKI: 22.274
L2C INSTRUCTION PREFETCH MPKI: 0
L2C WRITEBACK ACCESS:     506493  HIT:     504244  MISS:       2249  HIT %:     99.556  MISS %:   0.444034   MPKI: 0.04498
L2C LOAD TRANSLATION ACCESS:     108091  HIT:      66659  MISS:      41432  HIT %:    61.6693  MISS %:    38.3307   MPKI: 0.82864
L2C TRANSLATION FROM L1D PREFETCHER ACCESS:     206813  HIT:     121504  MISS:      85309  HIT %:    58.7507  MISS %:    41.2493   MPKI: 1.70618
L2C PREFETCH  REQUESTED:          0  ISSUED:          0  USEFUL:      92970  USELESS:    1105932
L2C USEFUL LOAD PREFETCHES:      92970 PREFETCH ISSUED TO LOWER LEVEL:    1113698  ACCURACY: 8.34786
L2C TIMELY PREFETCHES:      92970 LATE PREFETCHES: 0 DROPPED PREFETCHES: 0
L2C PREFETCHES SAME FILL-ORIGIN LEVEL: 0 DIFFERENT FILL-ORIGIN LEVEL: 0
L2C AVERAGE MISS LATENCY: 169.643 cycles
L2C RQ	ACCESS:     887039	FORWARD:          0	MERGED:          0	TO_CACHE:     887002
L2C WQ	ACCESS:     506493	FORWARD:         70	MERGED:          0	TO_CACHE:     506493
L2C PQ	ACCESS:    1332817	FORWARD:          0	MERGED:          0	TO_CACHE:    1332784

L2C Instructions Evicting Data 1289
L2C Translations Evicting Data 116597
L2C Data Evicting Data 1409660
L2C Instructions Evicting Instructions 6
L2C Translations Evicting Instructions 114
L2C Data Evicting Instructions 1231
L2C Instructions Evicting Translations 57
L2C Translations Evicting Translations 10030
L2C Data Evicting Translations 117131
L2C Dense regions hint from L2: 0
PSCL5 TOTAL     ACCESS:     290538  HIT:     290538  MISS:          0  HIT %:        100  MISS %:          0   MPKI: 0
PSCL5 LOAD TRANSLATION ACCESS:     100788  HIT:     100788  MISS:          0  HIT %:        100  MISS %:          0   MPKI: 0
PSCL5 TRANSLATION FROM L1D PREFETCHER ACCESS:     189750  HIT:     189750  MISS:          0  HIT %:        100  MISS %:          0   MPKI: 0
PSCL5 PREFETCH  REQUESTED:          0  ISSUED:          0  USEFUL:          0  USELESS:          0
PSCL5 USEFUL LOAD PREFETCHES:          0 PREFETCH ISSUED TO LOWER LEVEL:          0  ACCURACY: -nan
PSCL5 TIMELY PREFETCHES:          0 LATE PREFETCHES: 0 DROPPED PREFETCHES: 0
PSCL5 PREFETCHES SAME FILL-ORIGIN LEVEL: 0 DIFFERENT FILL-ORIGIN LEVEL: 0

PSCL4 TOTAL     ACCESS:     290538  HIT:     290538  MISS:          0  HIT %:        100  MISS %:          0   MPKI: 0
PSCL4 LOAD TRANSLATION ACCESS:     100788  HIT:     100788  MISS:          0  HIT %:        100  MISS %:          0   MPKI: 0
PSCL4 TRANSLATION FROM L1D PREFETCHER ACCESS:     189750  HIT:     189750  MISS:          0  HIT %:        100  MISS %:          0   MPKI: 0
PSCL4 PREFETCH  REQUESTED:          0  ISSUED:          0  USEFUL:          0  USELESS:          0
PSCL4 USEFUL LOAD PREFETCHES:          0 PREFETCH ISSUED TO LOWER LEVEL:          0  ACCURACY: -nan
PSCL4 TIMELY PREFETCHES:          0 LATE PREFETCHES: 0 DROPPED PREFETCHES: 0
PSCL4 PREFETCHES SAME FILL-ORIGIN LEVEL: 0 DIFFERENT FILL-ORIGIN LEVEL: 0

PSCL3 TOTAL     ACCESS:     290538  HIT:     290538  MISS:          0  HIT %:        100  MISS %:          0   MPKI: 0
PSCL3 LOAD TRANSLATION ACCESS:     100788  HIT:     100788  MISS:          0  HIT %:        100  MISS %:          0   MPKI: 0
PSCL3 TRANSLATION FROM L1D PREFETCHER ACCESS:     189750  HIT:     189750  MISS:          0  HIT %:        100  MISS %:          0   MPKI: 0
PSCL3 PREFETCH  REQUESTED:          0  ISSUED:          0  USEFUL:          0  USELESS:          0
PSCL3 USEFUL LOAD PREFETCHES:          0 PREFETCH ISSUED TO LOWER LEVEL:          0  ACCURACY: -nan
PSCL3 TIMELY PREFETCHES:          0 LATE PREFETCHES: 0 DROPPED PREFETCHES: 0
PSCL3 PREFETCHES SAME FILL-ORIGIN LEVEL: 0 DIFFERENT FILL-ORIGIN LEVEL: 0

PSCL2 TOTAL     ACCESS:     290538  HIT:     266171  MISS:      24367  HIT %:    91.6131  MISS %:    8.38685   MPKI: 0.48734
PSCL2 LOAD TRANSLATION ACCESS:     117851  HIT:      93484  MISS:      24367  HIT %:    79.3239  MISS %:    20.6761   MPKI: 0.48734
PSCL2 TRANSLATION FROM L1D PREFETCHER ACCESS:     172687  HIT:     172687  MISS:          0  HIT %:        100  MISS %:          0   MPKI: 0
PSCL2 PREFETCH  REQUESTED:          0  ISSUED:          0  USEFUL:          0  USELESS:          0
PSCL2 USEFUL LOAD PREFETCHES:          0 PREFETCH ISSUED TO LOWER LEVEL:          0  ACCURACY: -nan
PSCL2 TIMELY PREFETCHES:          0 LATE PREFETCHES: 0 DROPPED PREFETCHES: 0
PSCL2 PREFETCHES SAME FILL-ORIGIN LEVEL: 0 DIFFERENT FILL-ORIGIN LEVEL: 0

LLC TOTAL     ACCESS:    2103780  HIT:     797676  MISS:    1306104  HIT %:    37.9163  MISS %:    62.0837   MPKI: 26.1221
LLC LOAD      ACCESS:     293000  HIT:      70040  MISS:     222960  HIT %:    23.9044  MISS %:    76.0956   MPKI: 4.4592
LLC RFO       ACCESS:     122674  HIT:      16443  MISS:     106231  HIT %:    13.4038  MISS %:    86.5962   MPKI: 2.12462
LLC PREFETCH  ACCESS:    1113697  HIT:     178997  MISS:     934700  HIT %:    16.0723  MISS %:    83.9277   MPKI: 18.694
AGUS PREFETCH L1 MISS: 0
LLC WRITEBACK ACCESS:     447668  HIT:     446067  MISS:       1601  HIT %:    99.6424  MISS %:   0.357631   MPKI: 0.03202
LLC LOAD TRANSLATION ACCESS:      41432  HIT:      30888  MISS:      10544  HIT %:    74.5511  MISS %:    25.4489   MPKI: 0.21088
LLC TRANSLATION FROM L1D PREFETCHER ACCESS:      85309  HIT:      55241  MISS:      30068  HIT %:     64.754  MISS %:     35.246   MPKI: 0.60136
LLC PREFETCH  REQUESTED:          0  ISSUED:          0  USEFUL:      41403  USELESS:     921726
LLC USEFUL LOAD PREFETCHES:      41403 PREFETCH ISSUED TO LOWER LEVEL:     934700  ACCURACY: 4.42955
LLC TIMELY PREFETCHES:      41403 LATE PREFETCHES: 0 DROPPED PREFETCHES: 0
LLC PREFETCHES SAME FILL-ORIGIN LEVEL: 0 DIFFERENT FILL-ORIGIN LEVEL: 0
LLC AVERAGE MISS LATENCY: 177.303 cycles
LLC RQ	ACCESS:     542417	FORWARD:          0	MERGED:          0	TO_CACHE:     542415
LLC WQ	ACCESS:     447668	FORWARD:          3	MERGED:          0	TO_CACHE:     447668
LLC PQ	ACCESS:    1113698	FORWARD:          0	MERGED:          0	TO_CACHE:    1113697

LLC Dense regions hint to LLC: 0

RAW hits: 770935
Loads Generated: 14875433
Loads sent to L1D: 14104498
Stores Generated: 8476008
Stores sent to L1D: 8476021
Major fault: 0 Minor fault: 33441
Allocated PAGES: 33441

stream: 
stream:times selected: 4499401
stream:pref_reqs: 4399233
stream:pref_reqs_filtered_out: 1229630
stream:pref_filled: 759168
stream:pref_useful: 115175
stream:pref_late: 12702
stream:misses: 22295
stream:misses_by_poll: 0

CS: 
CS:times selected: 62994
CS:pref_reqs: 63787
CS:pref_reqs_filtered_out: 19513
CS:pref_filled: 24280
CS:pref_useful: 4489
CS:pref_late: 225
CS:misses: 394
CS:misses_by_poll: 5

CPLX: 
CPLX:times selected: 4457623
CPLX:pref_reqs: 702440
CPLX:pref_reqs_filtered_out: 219634
CPLX:pref_filled: 260761
CPLX:pref_useful: 8790
CPLX:pref_late: 1025
CPLX:misses: 70162
CPLX:misses_by_poll: 342

ISB: 
ISB:total access:16287308
ISB:times selected:9225149
ISB:canary counter:0
ISB:pref_reqs: 6214356
ISB:pref_reqs_filtered_out: 2618559
ISB:pref_filled: 1282172
ISB:pref_useful: 923795
ISB:pref_late: 58163
ISB:misses: 462379
ISB:misses_by_poll: 4489
ISB:Stream end: 3066337
ISB:No Prediction: 7062159 43.3599
ISB:No translation: 3080429103
ISB:Predictions: 3503564 21.511

NL_L1: 
NL:times selected: 15701
NL:pref_reqs: 15701
NL:pref_reqs_filtered_out: 3642
NL:pref_filled: 4109
NL:pref_useful: 533
NL:pref_late: 63
NL:misses: 1804
NL:misses_by_poll: 0

Coverage: 54.0363
total selections: 18260868
total_filled: 1267752
total_useful: 581586
total_late: 74807
total_polluted: 4836
total_misses_after_warmup: 553174
conflicts: 4571331

test: 0
ISB Prefetcher final stats
Prefetcher final stats
Training Unit Size: 546
Addr table size: 373709 373736
Triggers: 16287308
Structural address exists: 9225149 56.6401
No Prediction: 7062159 43.3599
Prefetches issued: 3503564 21.511
Stream end: 3066337
No translation: 3080429103
%Stream divergence: 240606 1.47726
Stream divergence -- new stream: 0
A: 0
B: 0
C: 4499404
D: 4499404
E: 4499404
F: 0
G: 0

DRAM Statistics
 CHANNEL 0
 RQ ROW_BUFFER_HIT:     153199  ROW_BUFFER_MISS:    1151273
 DBUS_CONGESTED:       1016
 WQ ROW_BUFFER_HIT:      76525  ROW_BUFFER_MISS:     307229  FULL:          0

 AVG_CONGESTED_CYCLE: 4
 All warmup complete: 2
Channel 0 Bank busy for read cycles: 0
Channel 0 Bank busy for write cycles: 0
Channel 0
Rank 0
0banks busy for read cycles: 38699713
0banks busy for write cycles: 93634
1banks busy for read cycles: 40915760
1banks busy for write cycles: 12626203
2banks busy for read cycles: 25570185
2banks busy for write cycles: 7592572
3banks busy for read cycles: 13269953
3banks busy for write cycles: 5004379
4banks busy for read cycles: 6778082
4banks busy for write cycles: 3373048
5banks busy for read cycles: 2842631
5banks busy for write cycles: 2268762
6banks busy for read cycles: 905254
6banks busy for write cycles: 1434894
7banks busy for read cycles: 210950
7banks busy for write cycles: 847019
8banks busy for read cycles: 32535
8banks busy for write cycles: 455325

CPU 0 Branch Prediction Accuracy: 94.0755% MPKI: 14.2353 Average ROB Occupancy at Mispredict: 25.2997
Branch types
NOT_BRANCH: 37985796 75.9716%
BRANCH_DIRECT_JUMP: 964405 1.92881%
BRANCH_INDIRECT: 140341 0.280682%
BRANCH_CONDITIONAL: 7911981 15.824%
BRANCH_DIRECT_CALL: 1294152 2.5883%
BRANCH_INDIRECT_CALL: 204449 0.408898%
BRANCH_RETURN: 1498606 2.99721%
BRANCH_OTHER: 0 0%

DRAM PAGES: 1048576
Allocated PAGES: 33441
