
*** ChampSim Multicore Out-of-Order Simulator ***

Warmup Instructions: 50000000
Simulation Instructions: 50000000
Number of CPUs: 1
LLC sets: 2048
LLC ways: 16
Off-chip DRAM Size: 4096 MB Channels: 1 Width: 64-bit Data Rate: 6400 MT/s
CPU 0 runs ./traces/SPEC-CPU2017/482.sphinx3-234B.champsimtrace.xz
.xz
CPU 0 Bimodal branch predictor
BTB has LRU replacement policy
ITLB has LRU replacement policy
DTLB has LRU replacement policy
STLB has LRU replacement policy
L1I has LRU replacement policy
L1D has LRU replacement policy
L2C has LRU replacement policy
LLC has LRU replacement policy
Heartbeat CPU 0 instructions: 10000000 cycles: 3092659 heartbeat IPC: 3.23346 cumulative IPC: 3.23346 (Simulation time: 0 hr 14 min 9 sec) 
Heartbeat CPU 0 instructions: 20000000 cycles: 6187772 heartbeat IPC: 3.2309 cumulative IPC: 3.23218 (Simulation time: 0 hr 30 min 32 sec) 
Heartbeat CPU 0 instructions: 30000001 cycles: 9280008 heartbeat IPC: 3.23391 cumulative IPC: 3.23276 (Simulation time: 0 hr 45 min 47 sec) 
Heartbeat CPU 0 instructions: 40000000 cycles: 12409842 heartbeat IPC: 3.19506 cumulative IPC: 3.22325 (Simulation time: 0 hr 59 min 33 sec) 
Heartbeat CPU 0 instructions: 50000000 cycles: 15456647 heartbeat IPC: 3.28213 cumulative IPC: 3.23485 (Simulation time: 1 hr 8 min 17 sec) 

Warmup complete CPU 0 instructions: 50000004 cycles: 15456648 (Simulation time: 1 hr 8 min 17 sec) 

Heartbeat CPU 0 instructions: 60000000 cycles: 27859865 heartbeat IPC: 0.806242 cumulative IPC: 0.806242 (Simulation time: 1 hr 11 min 15 sec) 
Heartbeat CPU 0 instructions: 70000001 cycles: 39338843 heartbeat IPC: 0.871158 cumulative IPC: 0.837444 (Simulation time: 1 hr 13 min 58 sec) 
Heartbeat CPU 0 instructions: 80000000 cycles: 50607438 heartbeat IPC: 0.887422 cumulative IPC: 0.853466 (Simulation time: 1 hr 16 min 31 sec) 
Heartbeat CPU 0 instructions: 90000000 cycles: 62083189 heartbeat IPC: 0.871403 cumulative IPC: 0.85788 (Simulation time: 1 hr 19 min 12 sec) 
Heartbeat CPU 0 instructions: 100000000 cycles: 74412859 heartbeat IPC: 0.811052 cumulative IPC: 0.848087 (Simulation time: 1 hr 21 min 36 sec) 
Finished CPU 0 instructions: 50000000 cycles: 58956228 cumulative IPC: 0.848087 (Simulation time: 1 hr 21 min 36 sec) 

ChampSim completed all CPUs

Region of Interest Statistics

CPU 0 cumulative IPC: 0.848087 instructions: 50000000 cycles: 58956228
ITLB TOTAL     ACCESS:    9674363  HIT:    9674363  MISS:          0  HIT %:        100  MISS %:          0   MPKI: 0
ITLB LOAD TRANSLATION ACCESS:    9674363  HIT:    9674363  MISS:          0  HIT %:        100  MISS %:          0   MPKI: 0
ITLB PREFETCH  REQUESTED:          0  ISSUED:          0  USEFUL:          0  USELESS:          0
ITLB USEFUL LOAD PREFETCHES:          0 PREFETCH ISSUED TO LOWER LEVEL:          0  ACCURACY: -nan
ITLB TIMELY PREFETCHES:          0 LATE PREFETCHES: 0 DROPPED PREFETCHES: 0
ITLB PREFETCHES SAME FILL-ORIGIN LEVEL: 0 DIFFERENT FILL-ORIGIN LEVEL: 0
ITLB AVERAGE MISS LATENCY: -nan cycles
ITLB RQ	ACCESS:   10477943	FORWARD:          0	MERGED:     803580	TO_CACHE:    9674363

DTLB TOTAL     ACCESS:    9218968  HIT:    9157132  MISS:      61836  HIT %:    99.3293  MISS %:   0.670748   MPKI: 1.23672
DTLB LOAD TRANSLATION ACCESS:    9218968  HIT:    9157132  MISS:      61836  HIT %:    99.3293  MISS %:   0.670748   MPKI: 1.23672
DTLB PREFETCH  REQUESTED:          0  ISSUED:          0  USEFUL:          0  USELESS:          0
DTLB USEFUL LOAD PREFETCHES:          0 PREFETCH ISSUED TO LOWER LEVEL:          0  ACCURACY: -nan
DTLB TIMELY PREFETCHES:          0 LATE PREFETCHES: 0 DROPPED PREFETCHES: 0
DTLB PREFETCHES SAME FILL-ORIGIN LEVEL: 0 DIFFERENT FILL-ORIGIN LEVEL: 0
DTLB AVERAGE MISS LATENCY: 15.3875 cycles
DTLB RQ	ACCESS:   10227282	FORWARD:          0	MERGED:     997657	TO_CACHE:    9229625

STLB TOTAL     ACCESS:    1053435  HIT:    1028123  MISS:      25312  HIT %:    97.5972  MISS %:    2.40281   MPKI: 0.50624
STLB LOAD TRANSLATION ACCESS:      61836  HIT:      57863  MISS:       3973  HIT %:    93.5749  MISS %:    6.42506   MPKI: 0.07946
STLB TRANSLATION FROM L1D PREFETCHER ACCESS:     991599  HIT:     970260  MISS:      21339  HIT %:     97.848  MISS %:    2.15198   MPKI: 0.42678
STLB PREFETCH  REQUESTED:          0  ISSUED:          0  USEFUL:      19561  USELESS:       1751
STLB USEFUL LOAD PREFETCHES:      19561 PREFETCH ISSUED TO LOWER LEVEL:          0  ACCURACY: inf
STLB TIMELY PREFETCHES:      19561 LATE PREFETCHES: 2 DROPPED PREFETCHES: 0
STLB PREFETCHES SAME FILL-ORIGIN LEVEL: 0 DIFFERENT FILL-ORIGIN LEVEL: 0
STLB AVERAGE MISS LATENCY: 93.7097 cycles
STLB RQ	ACCESS:    1582662	FORWARD:          0	MERGED:     529111	TO_CACHE:    1053551

STLB Hit, L1D data hit: 0
STLB Hit, L2C data hit: 0
STLB Hit, LLC data hit: 0
STLB Hit, LLC data miss: 0
STLB STLB hints to L2: 0
L1D TOTAL     ACCESS:   11491800  HIT:   10524407  MISS:     967393  HIT %:    91.5819  MISS %:    8.41812   MPKI: 19.3479
L1D LOAD      ACCESS:    9298841  HIT:    9143610  MISS:     155231  HIT %:    98.3306  MISS %:    1.66936   MPKI: 3.10462
L1D RFO       ACCESS:     686647  HIT:     652553  MISS:      34094  HIT %:    95.0347  MISS %:    4.96529   MPKI: 0.68188
L1D PREFETCH  ACCESS:    1506312  HIT:     728244  MISS:     778068  HIT %:    48.3462  MISS %:    51.6538   MPKI: 15.5614
AGUS PREFETCH L1 MISS: 0
L1D PREFETCH  REQUESTED:    3261729  ISSUED:    3041657  USEFUL:     534357  USELESS:     243799
L1D USEFUL LOAD PREFETCHES:     534357 PREFETCH ISSUED TO LOWER LEVEL:     786039  ACCURACY: 67.981
L1D TIMELY PREFETCHES:     534357 LATE PREFETCHES: 7959 DROPPED PREFETCHES: 0
L1D PREFETCHES SAME FILL-ORIGIN LEVEL: 786039 DIFFERENT FILL-ORIGIN LEVEL: 0
L1D AVERAGE MISS LATENCY: 137.258 cycles
L1D RQ	ACCESS:   12889539	FORWARD:          0	MERGED:    3508294	TO_CACHE:    9370403
L1D WQ	ACCESS:     858601	FORWARD:      10845	MERGED:       1722	TO_CACHE:     856879
L1D PQ	ACCESS:    1520831	FORWARD:          0	MERGED:          2	TO_CACHE:    1520826

L1D UNIQUE REGIONS ACCESSED: 0
L1D REGIONS CONFLICTS: 0
L1D Cross Page Prefetch Requests: 819979
L1D Same Page Prefetch Requests: 2304188
L1D ROI Sum of L1D PQ occupancy: 27545044
L1D PREFETCHES PUSHED FROM L2C: 0
L1I TOTAL     ACCESS:   10477941  HIT:   10477941  MISS:          0  HIT %:        100  MISS %:          0   MPKI: 0
L1I LOAD      ACCESS:   10477941  HIT:   10477941  MISS:          0  HIT %:        100  MISS %:          0   MPKI: 0
L1I PREFETCH  REQUESTED:          0  ISSUED:          0  USEFUL:          0  USELESS:          0
L1I USEFUL LOAD PREFETCHES:          0 PREFETCH ISSUED TO LOWER LEVEL:          0  ACCURACY: -nan
L1I TIMELY PREFETCHES:          0 LATE PREFETCHES: 0 DROPPED PREFETCHES: 0
L1I PREFETCHES SAME FILL-ORIGIN LEVEL: 0 DIFFERENT FILL-ORIGIN LEVEL: 0
L1I AVERAGE MISS LATENCY: -nan cycles
L1I RQ	ACCESS:   12641656	FORWARD:          0	MERGED:    2163713	TO_CACHE:   10477943

BTB TOTAL     ACCESS:    4309219  HIT:    4298926  MISS:      10293  HIT %:    99.7611  MISS %:    0.23886   MPKI: 0.20586
BTB BRANCH_DIRECT_JUMP	ACCESS:      86243  HIT:      86192  MISS:         51
BTB BRANCH_INDIRECT	ACCESS:          0  HIT:          0  MISS:          0
BTB BRANCH_CONDITIONAL	ACCESS:    4052258  HIT:    4052079  MISS:        179
BTB BRANCH_DIRECT_CALL	ACCESS:      85360  HIT:      85282  MISS:         78
BTB BRANCH_INDIRECT_CALL	ACCESS:          0  HIT:          0  MISS:          0
BTB BRANCH_RETURN	ACCESS:      85358  HIT:      75373  MISS:       9985
BTB BRANCH_OTHER ACCESS:          0  HIT:          0  MISS:          0

L2C TOTAL     ACCESS:    1035190  HIT:     319791  MISS:     715399  HIT %:     30.892  MISS %:     69.108   MPKI: 14.308
L2C LOAD      ACCESS:     147271  HIT:      89929  MISS:      57342  HIT %:    61.0636  MISS %:    38.9364   MPKI: 1.14684
L2C DATA LOAD MPKI: 1.14684
L2C INSTRUCTION LOAD MPKI: 0
L2C RFO       ACCESS:      34081  HIT:       2588  MISS:      31493  HIT %:    7.59367  MISS %:    92.4063   MPKI: 0.62986
L2C PREFETCH  ACCESS:     786034  HIT:     164692  MISS:     621342  HIT %:    20.9523  MISS %:    79.0477   MPKI: 12.4268
AGUS PREFETCH L1 MISS: 0
L2C DATA PREFETCH MPKI: 12.4268
L2C INSTRUCTION PREFETCH MPKI: 0
L2C WRITEBACK ACCESS:      42492  HIT:      42366  MISS:        126  HIT %:    99.7035  MISS %:   0.296526   MPKI: 0.00252
L2C LOAD TRANSLATION ACCESS:       3971  HIT:       2806  MISS:       1165  HIT %:    70.6623  MISS %:    29.3377   MPKI: 0.0233
L2C TRANSLATION FROM L1D PREFETCHER ACCESS:      21341  HIT:      17410  MISS:       3931  HIT %:    81.5801  MISS %:    18.4199   MPKI: 0.07862
L2C PREFETCH  REQUESTED:          0  ISSUED:          0  USEFUL:      15689  USELESS:     609536
L2C USEFUL LOAD PREFETCHES:      15689 PREFETCH ISSUED TO LOWER LEVEL:     621343  ACCURACY: 2.52501
L2C TIMELY PREFETCHES:      15689 LATE PREFETCHES: 0 DROPPED PREFETCHES: 0
L2C PREFETCHES SAME FILL-ORIGIN LEVEL: 0 DIFFERENT FILL-ORIGIN LEVEL: 0
L2C AVERAGE MISS LATENCY: 166.573 cycles
L2C RQ	ACCESS:     206667	FORWARD:          0	MERGED:          0	TO_CACHE:     206664
L2C WQ	ACCESS:      42492	FORWARD:          7	MERGED:          0	TO_CACHE:      42492
L2C PQ	ACCESS:     786039	FORWARD:          0	MERGED:          0	TO_CACHE:     786035

L2C Instructions Evicting Data 0
L2C Translations Evicting Data 5066
L2C Data Evicting Data 705103
L2C Instructions Evicting Instructions 0
L2C Translations Evicting Instructions 0
L2C Data Evicting Instructions 0
L2C Instructions Evicting Translations 0
L2C Translations Evicting Translations 30
L2C Data Evicting Translations 5074
L2C Dense regions hint from L2: 0
PSCL5 TOTAL     ACCESS:      25312  HIT:      25312  MISS:          0  HIT %:        100  MISS %:          0   MPKI: 0
PSCL5 LOAD TRANSLATION ACCESS:       3971  HIT:       3971  MISS:          0  HIT %:        100  MISS %:          0   MPKI: 0
PSCL5 TRANSLATION FROM L1D PREFETCHER ACCESS:      21341  HIT:      21341  MISS:          0  HIT %:        100  MISS %:          0   MPKI: 0
PSCL5 PREFETCH  REQUESTED:          0  ISSUED:          0  USEFUL:          0  USELESS:          0
PSCL5 USEFUL LOAD PREFETCHES:          0 PREFETCH ISSUED TO LOWER LEVEL:          0  ACCURACY: -nan
PSCL5 TIMELY PREFETCHES:          0 LATE PREFETCHES: 0 DROPPED PREFETCHES: 0
PSCL5 PREFETCHES SAME FILL-ORIGIN LEVEL: 0 DIFFERENT FILL-ORIGIN LEVEL: 0

PSCL4 TOTAL     ACCESS:      25312  HIT:      25312  MISS:          0  HIT %:        100  MISS %:          0   MPKI: 0
PSCL4 LOAD TRANSLATION ACCESS:       3971  HIT:       3971  MISS:          0  HIT %:        100  MISS %:          0   MPKI: 0
PSCL4 TRANSLATION FROM L1D PREFETCHER ACCESS:      21341  HIT:      21341  MISS:          0  HIT %:        100  MISS %:          0   MPKI: 0
PSCL4 PREFETCH  REQUESTED:          0  ISSUED:          0  USEFUL:          0  USELESS:          0
PSCL4 USEFUL LOAD PREFETCHES:          0 PREFETCH ISSUED TO LOWER LEVEL:          0  ACCURACY: -nan
PSCL4 TIMELY PREFETCHES:          0 LATE PREFETCHES: 0 DROPPED PREFETCHES: 0
PSCL4 PREFETCHES SAME FILL-ORIGIN LEVEL: 0 DIFFERENT FILL-ORIGIN LEVEL: 0

PSCL3 TOTAL     ACCESS:      25312  HIT:      25312  MISS:          0  HIT %:        100  MISS %:          0   MPKI: 0
PSCL3 LOAD TRANSLATION ACCESS:       3971  HIT:       3971  MISS:          0  HIT %:        100  MISS %:          0   MPKI: 0
PSCL3 TRANSLATION FROM L1D PREFETCHER ACCESS:      21341  HIT:      21341  MISS:          0  HIT %:        100  MISS %:          0   MPKI: 0
PSCL3 PREFETCH  REQUESTED:          0  ISSUED:          0  USEFUL:          0  USELESS:          0
PSCL3 USEFUL LOAD PREFETCHES:          0 PREFETCH ISSUED TO LOWER LEVEL:          0  ACCURACY: -nan
PSCL3 TIMELY PREFETCHES:          0 LATE PREFETCHES: 0 DROPPED PREFETCHES: 0
PSCL3 PREFETCHES SAME FILL-ORIGIN LEVEL: 0 DIFFERENT FILL-ORIGIN LEVEL: 0

PSCL2 TOTAL     ACCESS:      25312  HIT:      25312  MISS:          0  HIT %:        100  MISS %:          0   MPKI: 0
PSCL2 LOAD TRANSLATION ACCESS:       3971  HIT:       3971  MISS:          0  HIT %:        100  MISS %:          0   MPKI: 0
PSCL2 TRANSLATION FROM L1D PREFETCHER ACCESS:      21341  HIT:      21341  MISS:          0  HIT %:        100  MISS %:          0   MPKI: 0
PSCL2 PREFETCH  REQUESTED:          0  ISSUED:          0  USEFUL:          0  USELESS:          0
PSCL2 USEFUL LOAD PREFETCHES:          0 PREFETCH ISSUED TO LOWER LEVEL:          0  ACCURACY: -nan
PSCL2 TIMELY PREFETCHES:          0 LATE PREFETCHES: 0 DROPPED PREFETCHES: 0
PSCL2 PREFETCHES SAME FILL-ORIGIN LEVEL: 0 DIFFERENT FILL-ORIGIN LEVEL: 0

LLC TOTAL     ACCESS:     753555  HIT:      71740  MISS:     681815  HIT %:    9.52021  MISS %:    90.4798   MPKI: 13.6363
LLC LOAD      ACCESS:      57342  HIT:      10203  MISS:      47139  HIT %:    17.7932  MISS %:    82.2068   MPKI: 0.94278
LLC RFO       ACCESS:      31493  HIT:       4542  MISS:      26951  HIT %:    14.4223  MISS %:    85.5777   MPKI: 0.53902
LLC PREFETCH  ACCESS:     621342  HIT:      19802  MISS:     601540  HIT %:    3.18697  MISS %:     96.813   MPKI: 12.0308
AGUS PREFETCH L1 MISS: 0
LLC WRITEBACK ACCESS:      38282  HIT:      36936  MISS:       1346  HIT %:     96.484  MISS %:    3.51601   MPKI: 0.02692
LLC LOAD TRANSLATION ACCESS:       1165  HIT:        118  MISS:       1047  HIT %:    10.1288  MISS %:    89.8712   MPKI: 0.02094
LLC TRANSLATION FROM L1D PREFETCHER ACCESS:       3931  HIT:        139  MISS:       3792  HIT %:      3.536  MISS %:     96.464   MPKI: 0.07584
LLC PREFETCH  REQUESTED:          0  ISSUED:          0  USEFUL:       5741  USELESS:     600404
LLC USEFUL LOAD PREFETCHES:       5741 PREFETCH ISSUED TO LOWER LEVEL:     601540  ACCURACY: 0.954384
LLC TIMELY PREFETCHES:       5741 LATE PREFETCHES: 0 DROPPED PREFETCHES: 0
LLC PREFETCHES SAME FILL-ORIGIN LEVEL: 0 DIFFERENT FILL-ORIGIN LEVEL: 0
LLC AVERAGE MISS LATENCY: 143.305 cycles
LLC RQ	ACCESS:      93931	FORWARD:          0	MERGED:          0	TO_CACHE:      93931
LLC WQ	ACCESS:      38282	FORWARD:          0	MERGED:          0	TO_CACHE:      38282
LLC PQ	ACCESS:     621343	FORWARD:          0	MERGED:          0	TO_CACHE:     621343

LLC Dense regions hint to LLC: 0

RAW hits: 56196
Loads Generated: 12945735
Loads sent to L1D: 12889539
Stores Generated: 858600
Stores sent to L1D: 858601
Major fault: 0 Minor fault: 4120
Allocated PAGES: 4120

stream: 
stream:times selected: 2446612
stream:pref_reqs: 2408156
stream:pref_reqs_filtered_out: 1617564
stream:pref_filled: 255955
stream:pref_useful: 83256
stream:pref_late: 5497
stream:misses: 36675
stream:misses_by_poll: 0

CS: 
CS:times selected: 1494587
CS:pref_reqs: 4416809
CS:pref_reqs_filtered_out: 3204938
CS:pref_filled: 900843
CS:pref_useful: 827128
CS:pref_late: 2244
CS:misses: 45427
CS:misses_by_poll: 1956

CPLX: 
CPLX:times selected: 944424
CPLX:pref_reqs: 461435
CPLX:pref_reqs_filtered_out: 391705
CPLX:pref_filled: 13430
CPLX:pref_useful: 3403
CPLX:pref_late: 49
CPLX:misses: 166595
CPLX:misses_by_poll: 7

ISB: 
ISB:total access:18920303
ISB:times selected:5590357
ISB:canary counter:0
ISB:pref_reqs: 9488988
ISB:pref_reqs_filtered_out: 7879211
ISB:pref_filled: 413068
ISB:pref_useful: 167609
ISB:pref_late: 1507
ISB:misses: 83138
ISB:misses_by_poll: 774
ISB:Stream end: 4655647
ISB:No Prediction: 13329946 70.4531
ISB:No translation: 431251240 2279.3
ISB:Predictions: 1306937 6.90759

NL_L1: 
NL:times selected: 1787
NL:pref_reqs: 1787
NL:pref_reqs_filtered_out: 718
NL:pref_filled: 408
NL:pref_useful: 59
NL:pref_late: 1
NL:misses: 304
NL:misses_by_poll: 0

Coverage: 77.4893
total selections: 10477767
total_filled: 778068
total_useful: 534357
total_late: 9862
total_polluted: 2737
total_misses_after_warmup: 226793
conflicts: 302423

test: 0
Prefetcher final stats
Training Unit Size: 228
Addr table size: 44645 44662
Stream divergence: 74206 0.392203
Stream divergence -- new stream: 0
--------------------------Training unit table ------------------------

DRAM Statistics
 CHANNEL 0
 RQ ROW_BUFFER_HIT:     384883  ROW_BUFFER_MISS:     295564
 DBUS_CONGESTED:       1281
 WQ ROW_BUFFER_HIT:      16482  ROW_BUFFER_MISS:      19969  FULL:          0

 AVG_CONGESTED_CYCLE: 4
 All warmup complete: 2
Channel 0 Bank busy for read cycles: 0
Channel 0 Bank busy for write cycles: 0
Channel 0
Rank 0
0banks busy for read cycles: 18427562
0banks busy for write cycles: 10818
1banks busy for read cycles: 20906699
1banks busy for write cycles: 2031954
2banks busy for read cycles: 8738072
2banks busy for write cycles: 783515
3banks busy for read cycles: 3617512
3banks busy for write cycles: 439972
4banks busy for read cycles: 1625169
4banks busy for write cycles: 285467
5banks busy for read cycles: 798279
5banks busy for write cycles: 211943
6banks busy for read cycles: 435467
6banks busy for write cycles: 161095
7banks busy for read cycles: 144366
7banks busy for write cycles: 144971
8banks busy for read cycles: 29420
8banks busy for write cycles: 163948

CPU 0 Branch Prediction Accuracy: 95.9006% MPKI: 3.75384 Average ROB Occupancy at Mispredict: 49.7655
Branch types
NOT_BRANCH: 45421448 90.8429%
BRANCH_DIRECT_JUMP: 86243 0.172486%
BRANCH_INDIRECT: 0 0%
BRANCH_CONDITIONAL: 4321570 8.64314%
BRANCH_DIRECT_CALL: 85360 0.17072%
BRANCH_INDIRECT_CALL: 0 0%
BRANCH_RETURN: 85358 0.170716%
BRANCH_OTHER: 0 0%

DRAM PAGES: 1048576
Allocated PAGES: 4120
