
*** ChampSim Multicore Out-of-Order Simulator ***

Warmup Instructions: 50000000
Simulation Instructions: 50000000
Number of CPUs: 1
LLC sets: 2048
LLC ways: 16
Off-chip DRAM Size: 4096 MB Channels: 1 Width: 64-bit Data Rate: 6400 MT/s
CPU 0 runs ./traces/SPEC-CPU2017/482.sphinx3-234B.champsimtrace.xz
.xz
CPU 0 Bimodal branch predictor
BTB has LRU replacement policy
ITLB has LRU replacement policy
DTLB has LRU replacement policy
STLB has LRU replacement policy
L1I has LRU replacement policy
L1D has LRU replacement policy
L2C has LRU replacement policy
LLC has LRU replacement policy
Heartbeat CPU 0 instructions: 10000000 cycles: 3092326 heartbeat IPC: 3.23381 cumulative IPC: 3.23381 (Simulation time: 0 hr 12 min 7 sec) 
Heartbeat CPU 0 instructions: 20000000 cycles: 6186902 heartbeat IPC: 3.23146 cumulative IPC: 3.23264 (Simulation time: 0 hr 19 min 56 sec) 
Heartbeat CPU 0 instructions: 30000001 cycles: 9279041 heartbeat IPC: 3.23401 cumulative IPC: 3.23309 (Simulation time: 0 hr 28 min 12 sec) 
Heartbeat CPU 0 instructions: 40000000 cycles: 12408681 heartbeat IPC: 3.19526 cumulative IPC: 3.22355 (Simulation time: 0 hr 35 min 7 sec) 
Heartbeat CPU 0 instructions: 50000000 cycles: 15455098 heartbeat IPC: 3.28254 cumulative IPC: 3.23518 (Simulation time: 0 hr 41 min 28 sec) 

Warmup complete CPU 0 instructions: 50000004 cycles: 15455099 (Simulation time: 0 hr 41 min 28 sec) 

Heartbeat CPU 0 instructions: 60000000 cycles: 27749787 heartbeat IPC: 0.813359 cumulative IPC: 0.813359 (Simulation time: 0 hr 43 min 46 sec) 
Heartbeat CPU 0 instructions: 70000001 cycles: 39142351 heartbeat IPC: 0.877766 cumulative IPC: 0.844336 (Simulation time: 0 hr 46 min 1 sec) 
Heartbeat CPU 0 instructions: 80000000 cycles: 50306230 heartbeat IPC: 0.895746 cumulative IPC: 0.860804 (Simulation time: 0 hr 48 min 11 sec) 
Heartbeat CPU 0 instructions: 90000000 cycles: 61722336 heartbeat IPC: 0.875955 cumulative IPC: 0.864543 (Simulation time: 0 hr 50 min 33 sec) 
Heartbeat CPU 0 instructions: 100000000 cycles: 73918658 heartbeat IPC: 0.819919 cumulative IPC: 0.855234 (Simulation time: 0 hr 52 min 58 sec) 
Finished CPU 0 instructions: 50000000 cycles: 58463576 cumulative IPC: 0.855233 (Simulation time: 0 hr 52 min 58 sec) 

ChampSim completed all CPUs

Region of Interest Statistics

CPU 0 cumulative IPC: 0.855233 instructions: 50000000 cycles: 58463576
ITLB TOTAL     ACCESS:    9678606  HIT:    9678606  MISS:          0  HIT %:        100  MISS %:          0   MPKI: 0
ITLB LOAD TRANSLATION ACCESS:    9678606  HIT:    9678606  MISS:          0  HIT %:        100  MISS %:          0   MPKI: 0
ITLB PREFETCH  REQUESTED:          0  ISSUED:          0  USEFUL:          0  USELESS:          0
ITLB USEFUL LOAD PREFETCHES:          0 PREFETCH ISSUED TO LOWER LEVEL:          0  ACCURACY: -nan
ITLB TIMELY PREFETCHES:          0 LATE PREFETCHES: 0 DROPPED PREFETCHES: 0
ITLB PREFETCHES SAME FILL-ORIGIN LEVEL: 0 DIFFERENT FILL-ORIGIN LEVEL: 0
ITLB AVERAGE MISS LATENCY: -nan cycles
ITLB RQ	ACCESS:   10481731	FORWARD:          0	MERGED:     803125	TO_CACHE:    9678606

DTLB TOTAL     ACCESS:    9297125  HIT:    9235302  MISS:      61823  HIT %:     99.335  MISS %:   0.664969   MPKI: 1.23646
DTLB LOAD TRANSLATION ACCESS:    9297125  HIT:    9235302  MISS:      61823  HIT %:     99.335  MISS %:   0.664969   MPKI: 1.23646
DTLB PREFETCH  REQUESTED:          0  ISSUED:          0  USEFUL:          0  USELESS:          0
DTLB USEFUL LOAD PREFETCHES:          0 PREFETCH ISSUED TO LOWER LEVEL:          0  ACCURACY: -nan
DTLB TIMELY PREFETCHES:          0 LATE PREFETCHES: 0 DROPPED PREFETCHES: 0
DTLB PREFETCHES SAME FILL-ORIGIN LEVEL: 0 DIFFERENT FILL-ORIGIN LEVEL: 0
DTLB AVERAGE MISS LATENCY: 22.4559 cycles
DTLB RQ	ACCESS:   10308270	FORWARD:          0	MERGED:    1000539	TO_CACHE:    9307731

STLB TOTAL     ACCESS:     960185  HIT:     939740  MISS:      20445  HIT %:    97.8707  MISS %:    2.12928   MPKI: 0.4089
STLB LOAD TRANSLATION ACCESS:      61823  HIT:      54258  MISS:       7565  HIT %:    87.7635  MISS %:    12.2365   MPKI: 0.1513
STLB TRANSLATION FROM L1D PREFETCHER ACCESS:     898362  HIT:     885482  MISS:      12880  HIT %:    98.5663  MISS %:    1.43372   MPKI: 0.2576
STLB PREFETCH  REQUESTED:          0  ISSUED:          0  USEFUL:      11519  USELESS:       1343
STLB USEFUL LOAD PREFETCHES:      11519 PREFETCH ISSUED TO LOWER LEVEL:          0  ACCURACY: inf
STLB TIMELY PREFETCHES:      11519 LATE PREFETCHES: 460 DROPPED PREFETCHES: 0
STLB PREFETCHES SAME FILL-ORIGIN LEVEL: 0 DIFFERENT FILL-ORIGIN LEVEL: 0
STLB AVERAGE MISS LATENCY: 82.5624 cycles
STLB RQ	ACCESS:    1199342	FORWARD:          0	MERGED:     238636	TO_CACHE:     960706

STLB Hit, L1D data hit: 0
STLB Hit, L2C data hit: 0
STLB Hit, LLC data hit: 0
STLB Hit, LLC data miss: 0
STLB STLB hints to L2: 0
L1D TOTAL     ACCESS:   11191273  HIT:   10300021  MISS:     891252  HIT %:    92.0362  MISS %:    7.96381   MPKI: 17.825
L1D LOAD      ACCESS:    9394196  HIT:    9243086  MISS:     151110  HIT %:    98.3915  MISS %:    1.60855   MPKI: 3.0222
L1D RFO       ACCESS:     686751  HIT:     652759  MISS:      33992  HIT %:    95.0503  MISS %:    4.94968   MPKI: 0.67984
L1D PREFETCH  ACCESS:    1110326  HIT:     404176  MISS:     706150  HIT %:    36.4016  MISS %:    63.5984   MPKI: 14.123
AGUS PREFETCH L1 MISS: 0
L1D PREFETCH  REQUESTED:    2292696  ISSUED:    2275041  USEFUL:     535177  USELESS:     171003
L1D USEFUL LOAD PREFETCHES:     535177 PREFETCH ISSUED TO LOWER LEVEL:     724699  ACCURACY: 73.8482
L1D TIMELY PREFETCHES:     535177 LATE PREFETCHES: 18538 DROPPED PREFETCHES: 0
L1D PREFETCHES SAME FILL-ORIGIN LEVEL: 724699 DIFFERENT FILL-ORIGIN LEVEL: 0
L1D AVERAGE MISS LATENCY: 138.471 cycles
L1D RQ	ACCESS:   12889522	FORWARD:          0	MERGED:    3427132	TO_CACHE:    9451410
L1D WQ	ACCESS:     858601	FORWARD:      10983	MERGED:       1741	TO_CACHE:     856860
L1D PQ	ACCESS:    1137522	FORWARD:          0	MERGED:          0	TO_CACHE:    1137519

L1D UNIQUE REGIONS ACCESSED: 0
L1D REGIONS CONFLICTS: 0
L1D Cross Page Prefetch Requests: 234004
L1D Same Page Prefetch Requests: 2244639
L1D ROI Sum of L1D PQ occupancy: 16863016
L1D PREFETCHES PUSHED FROM L2C: 0
L1I TOTAL     ACCESS:   10481729  HIT:   10481729  MISS:          0  HIT %:        100  MISS %:          0   MPKI: 0
L1I LOAD      ACCESS:   10481729  HIT:   10481729  MISS:          0  HIT %:        100  MISS %:          0   MPKI: 0
L1I PREFETCH  REQUESTED:          0  ISSUED:          0  USEFUL:          0  USELESS:          0
L1I USEFUL LOAD PREFETCHES:          0 PREFETCH ISSUED TO LOWER LEVEL:          0  ACCURACY: -nan
L1I TIMELY PREFETCHES:          0 LATE PREFETCHES: 0 DROPPED PREFETCHES: 0
L1I PREFETCHES SAME FILL-ORIGIN LEVEL: 0 DIFFERENT FILL-ORIGIN LEVEL: 0
L1I AVERAGE MISS LATENCY: -nan cycles
L1I RQ	ACCESS:   12653180	FORWARD:          0	MERGED:    2171449	TO_CACHE:   10481731

BTB TOTAL     ACCESS:    4309219  HIT:    4298926  MISS:      10293  HIT %:    99.7611  MISS %:    0.23886   MPKI: 0.20586
BTB BRANCH_DIRECT_JUMP	ACCESS:      86243  HIT:      86192  MISS:         51
BTB BRANCH_INDIRECT	ACCESS:          0  HIT:          0  MISS:          0
BTB BRANCH_CONDITIONAL	ACCESS:    4052258  HIT:    4052079  MISS:        179
BTB BRANCH_DIRECT_CALL	ACCESS:      85360  HIT:      85282  MISS:         78
BTB BRANCH_INDIRECT_CALL	ACCESS:          0  HIT:          0  MISS:          0
BTB BRANCH_RETURN	ACCESS:      85358  HIT:      75373  MISS:       9985
BTB BRANCH_OTHER ACCESS:          0  HIT:          0  MISS:          0

L2C TOTAL     ACCESS:     954072  HIT:     275961  MISS:     678111  HIT %:    28.9245  MISS %:    71.0755   MPKI: 13.5622
L2C LOAD      ACCESS:     132571  HIT:      83057  MISS:      49514  HIT %:     62.651  MISS %:     37.349   MPKI: 0.99028
L2C DATA LOAD MPKI: 0.99028
L2C INSTRUCTION LOAD MPKI: 0
L2C RFO       ACCESS:      33982  HIT:       2691  MISS:      31291  HIT %:     7.9189  MISS %:    92.0811   MPKI: 0.62582
L2C PREFETCH  ACCESS:     724697  HIT:     132078  MISS:     592619  HIT %:    18.2253  MISS %:    81.7747   MPKI: 11.8524
AGUS PREFETCH L1 MISS: 0
L2C DATA PREFETCH MPKI: 11.8524
L2C INSTRUCTION PREFETCH MPKI: 0
L2C WRITEBACK ACCESS:      42377  HIT:      42248  MISS:        129  HIT %:    99.6956  MISS %:    0.30441   MPKI: 0.00258
L2C LOAD TRANSLATION ACCESS:       7105  HIT:       4841  MISS:       2264  HIT %:    68.1351  MISS %:    31.8649   MPKI: 0.04528
L2C TRANSLATION FROM L1D PREFETCHER ACCESS:      13340  HIT:      11046  MISS:       2294  HIT %:    82.8036  MISS %:    17.1964   MPKI: 0.04588
L2C PREFETCH  REQUESTED:          0  ISSUED:          0  USEFUL:       9726  USELESS:     585105
L2C USEFUL LOAD PREFETCHES:       9726 PREFETCH ISSUED TO LOWER LEVEL:     592620  ACCURACY: 1.64119
L2C TIMELY PREFETCHES:       9726 LATE PREFETCHES: 0 DROPPED PREFETCHES: 0
L2C PREFETCHES SAME FILL-ORIGIN LEVEL: 0 DIFFERENT FILL-ORIGIN LEVEL: 0
L2C AVERAGE MISS LATENCY: 163.483 cycles
L2C RQ	ACCESS:     186999	FORWARD:          0	MERGED:          0	TO_CACHE:     186998
L2C WQ	ACCESS:      42377	FORWARD:          2	MERGED:          0	TO_CACHE:      42377
L2C PQ	ACCESS:     724699	FORWARD:          0	MERGED:          0	TO_CACHE:     724698

L2C Instructions Evicting Data 0
L2C Translations Evicting Data 4533
L2C Data Evicting Data 668886
L2C Instructions Evicting Instructions 0
L2C Translations Evicting Instructions 0
L2C Data Evicting Instructions 0
L2C Instructions Evicting Translations 0
L2C Translations Evicting Translations 25
L2C Data Evicting Translations 4538
L2C Dense regions hint from L2: 0
PSCL5 TOTAL     ACCESS:      20445  HIT:      20445  MISS:          0  HIT %:        100  MISS %:          0   MPKI: 0
PSCL5 LOAD TRANSLATION ACCESS:       7105  HIT:       7105  MISS:          0  HIT %:        100  MISS %:          0   MPKI: 0
PSCL5 TRANSLATION FROM L1D PREFETCHER ACCESS:      13340  HIT:      13340  MISS:          0  HIT %:        100  MISS %:          0   MPKI: 0
PSCL5 PREFETCH  REQUESTED:          0  ISSUED:          0  USEFUL:          0  USELESS:          0
PSCL5 USEFUL LOAD PREFETCHES:          0 PREFETCH ISSUED TO LOWER LEVEL:          0  ACCURACY: -nan
PSCL5 TIMELY PREFETCHES:          0 LATE PREFETCHES: 0 DROPPED PREFETCHES: 0
PSCL5 PREFETCHES SAME FILL-ORIGIN LEVEL: 0 DIFFERENT FILL-ORIGIN LEVEL: 0

PSCL4 TOTAL     ACCESS:      20445  HIT:      20445  MISS:          0  HIT %:        100  MISS %:          0   MPKI: 0
PSCL4 LOAD TRANSLATION ACCESS:       7105  HIT:       7105  MISS:          0  HIT %:        100  MISS %:          0   MPKI: 0
PSCL4 TRANSLATION FROM L1D PREFETCHER ACCESS:      13340  HIT:      13340  MISS:          0  HIT %:        100  MISS %:          0   MPKI: 0
PSCL4 PREFETCH  REQUESTED:          0  ISSUED:          0  USEFUL:          0  USELESS:          0
PSCL4 USEFUL LOAD PREFETCHES:          0 PREFETCH ISSUED TO LOWER LEVEL:          0  ACCURACY: -nan
PSCL4 TIMELY PREFETCHES:          0 LATE PREFETCHES: 0 DROPPED PREFETCHES: 0
PSCL4 PREFETCHES SAME FILL-ORIGIN LEVEL: 0 DIFFERENT FILL-ORIGIN LEVEL: 0

PSCL3 TOTAL     ACCESS:      20445  HIT:      20445  MISS:          0  HIT %:        100  MISS %:          0   MPKI: 0
PSCL3 LOAD TRANSLATION ACCESS:       7105  HIT:       7105  MISS:          0  HIT %:        100  MISS %:          0   MPKI: 0
PSCL3 TRANSLATION FROM L1D PREFETCHER ACCESS:      13340  HIT:      13340  MISS:          0  HIT %:        100  MISS %:          0   MPKI: 0
PSCL3 PREFETCH  REQUESTED:          0  ISSUED:          0  USEFUL:          0  USELESS:          0
PSCL3 USEFUL LOAD PREFETCHES:          0 PREFETCH ISSUED TO LOWER LEVEL:          0  ACCURACY: -nan
PSCL3 TIMELY PREFETCHES:          0 LATE PREFETCHES: 0 DROPPED PREFETCHES: 0
PSCL3 PREFETCHES SAME FILL-ORIGIN LEVEL: 0 DIFFERENT FILL-ORIGIN LEVEL: 0

PSCL2 TOTAL     ACCESS:      20445  HIT:      20445  MISS:          0  HIT %:        100  MISS %:          0   MPKI: 0
PSCL2 LOAD TRANSLATION ACCESS:       7105  HIT:       7105  MISS:          0  HIT %:        100  MISS %:          0   MPKI: 0
PSCL2 TRANSLATION FROM L1D PREFETCHER ACCESS:      13340  HIT:      13340  MISS:          0  HIT %:        100  MISS %:          0   MPKI: 0
PSCL2 PREFETCH  REQUESTED:          0  ISSUED:          0  USEFUL:          0  USELESS:          0
PSCL2 USEFUL LOAD PREFETCHES:          0 PREFETCH ISSUED TO LOWER LEVEL:          0  ACCURACY: -nan
PSCL2 TIMELY PREFETCHES:          0 LATE PREFETCHES: 0 DROPPED PREFETCHES: 0
PSCL2 PREFETCHES SAME FILL-ORIGIN LEVEL: 0 DIFFERENT FILL-ORIGIN LEVEL: 0

LLC TOTAL     ACCESS:     716196  HIT:      69510  MISS:     646686  HIT %:    9.70544  MISS %:    90.2946   MPKI: 12.9337
LLC LOAD      ACCESS:      49514  HIT:      10133  MISS:      39381  HIT %:    20.4649  MISS %:    79.5351   MPKI: 0.78762
LLC RFO       ACCESS:      31291  HIT:       4668  MISS:      26623  HIT %:     14.918  MISS %:     85.082   MPKI: 0.53246
LLC PREFETCH  ACCESS:     592617  HIT:      17824  MISS:     574793  HIT %:    3.00768  MISS %:    96.9923   MPKI: 11.4959
AGUS PREFETCH L1 MISS: 0
LLC WRITEBACK ACCESS:      38216  HIT:      36767  MISS:       1449  HIT %:    96.2084  MISS %:    3.79161   MPKI: 0.02898
LLC LOAD TRANSLATION ACCESS:       2264  HIT:         50  MISS:       2214  HIT %:    2.20848  MISS %:    97.7915   MPKI: 0.04428
LLC TRANSLATION FROM L1D PREFETCHER ACCESS:       2294  HIT:         68  MISS:       2226  HIT %:    2.96425  MISS %:    97.0357   MPKI: 0.04452
LLC PREFETCH  REQUESTED:          0  ISSUED:          0  USEFUL:       6099  USELESS:     571767
LLC USEFUL LOAD PREFETCHES:       6099 PREFETCH ISSUED TO LOWER LEVEL:     574793  ACCURACY: 1.06108
LLC TIMELY PREFETCHES:       6099 LATE PREFETCHES: 0 DROPPED PREFETCHES: 0
LLC PREFETCHES SAME FILL-ORIGIN LEVEL: 0 DIFFERENT FILL-ORIGIN LEVEL: 0
LLC AVERAGE MISS LATENCY: 139.974 cycles
LLC RQ	ACCESS:      85363	FORWARD:          0	MERGED:          0	TO_CACHE:      85363
LLC WQ	ACCESS:      38216	FORWARD:          2	MERGED:          0	TO_CACHE:      38216
LLC PQ	ACCESS:     592620	FORWARD:          0	MERGED:          0	TO_CACHE:     592618

LLC Dense regions hint to LLC: 0

RAW hits: 56213
Loads Generated: 12945735
Loads sent to L1D: 12889522
Stores Generated: 858600
Stores sent to L1D: 858601
Major fault: 0 Minor fault: 4120
Allocated PAGES: 4120

stream: 
stream:times selected: 2444414
stream:pref_reqs: 2405779
stream:pref_reqs_filtered_out: 1673846
stream:pref_filled: 312031
stream:pref_useful: 108629
stream:pref_late: 11774
stream:misses: 4184
stream:misses_by_poll: 0

CS: 
CS:times selected: 1490991
CS:pref_reqs: 4405866
CS:pref_reqs_filtered_out: 3226244
CS:pref_filled: 966901
CS:pref_useful: 887798
CS:pref_late: 2488
CS:misses: 2301
CS:misses_by_poll: 2169

CPLX: 
CPLX:times selected: 945922
CPLX:pref_reqs: 465687
CPLX:pref_reqs_filtered_out: 411057
CPLX:pref_filled: 17881
CPLX:pref_useful: 5088
CPLX:pref_late: 91
CPLX:misses: 18631
CPLX:misses_by_poll: 13

ISB: 
ISB:total access:19423250
ISB:times selected:17313105
ISB:canary counter:0
ISB:pref_reqs: 12788582
ISB:pref_reqs_filtered_out: 12170107
ISB:pref_filled: 188339
ISB:pref_useful: 91772
ISB:pref_late: 6127
ISB:misses: 303199
ISB:misses_by_poll: 499
ISB:Stream end: 4540379
ISB:No Prediction: 2110145 10.864
ISB:No translation: 3129183562
ISB:Predictions: 596318 3.07012

NL_L1: 
NL:times selected: 1667
NL:pref_reqs: 1667
NL:pref_reqs_filtered_out: 814
NL:pref_filled: 422
NL:pref_useful: 76
NL:pref_late: 0
NL:misses: 340
NL:misses_by_poll: 0

Coverage: 77.9815
total selections: 22196099
total_filled: 706150
total_useful: 535177
total_late: 21525
total_polluted: 2681
total_misses_after_warmup: 208324
conflicts: 302281

test: 0
ISB Prefetcher final stats
Prefetcher final stats
Training Unit Size: 1357
Addr table size: 143112 144111
Triggers: 19423250
Structural address exists: 17313105 89.136
No Prediction: 2110145 10.864
Prefetches issued: 596318 3.07012
Stream end: 4540379
No translation: 3129183562
%Stream divergence: 195434 1.00619
Stream divergence -- new stream: 0
A: 0
B: 0
C: 2444419
D: 2444419
E: 2444419
F: 0
G: 0

DRAM Statistics
 CHANNEL 0
 RQ ROW_BUFFER_HIT:     382780  ROW_BUFFER_MISS:     262424
 DBUS_CONGESTED:       1118
 WQ ROW_BUFFER_HIT:      17269  ROW_BUFFER_MISS:      19000  FULL:          0

 AVG_CONGESTED_CYCLE: 4
 All warmup complete: 2
Channel 0 Bank busy for read cycles: 0
Channel 0 Bank busy for write cycles: 0
Channel 0
Rank 0
0banks busy for read cycles: 18541029
0banks busy for write cycles: 10728
1banks busy for read cycles: 21869595
1banks busy for write cycles: 1955947
2banks busy for read cycles: 8471065
2banks busy for write cycles: 772325
3banks busy for read cycles: 3241874
3banks busy for write cycles: 426835
4banks busy for read cycles: 1315974
4banks busy for write cycles: 267669
5banks busy for read cycles: 515825
5banks busy for write cycles: 173968
6banks busy for read cycles: 245903
6banks busy for write cycles: 143836
7banks busy for read cycles: 74422
7banks busy for write cycles: 146193
8banks busy for read cycles: 16531
8banks busy for write cycles: 273858

CPU 0 Branch Prediction Accuracy: 95.9006% MPKI: 3.75384 Average ROB Occupancy at Mispredict: 47.6662
Branch types
NOT_BRANCH: 45421448 90.8429%
BRANCH_DIRECT_JUMP: 86243 0.172486%
BRANCH_INDIRECT: 0 0%
BRANCH_CONDITIONAL: 4321570 8.64314%
BRANCH_DIRECT_CALL: 85360 0.17072%
BRANCH_INDIRECT_CALL: 0 0%
BRANCH_RETURN: 85358 0.170716%
BRANCH_OTHER: 0 0%

DRAM PAGES: 1048576
Allocated PAGES: 4120
