
*** ChampSim Multicore Out-of-Order Simulator ***

Warmup Instructions: 50000000
Simulation Instructions: 50000000
Number of CPUs: 1
LLC sets: 2048
LLC ways: 16
Off-chip DRAM Size: 4096 MB Channels: 1 Width: 64-bit Data Rate: 6400 MT/s
CPU 0 runs ./traces/SPEC-CPU2017/482.sphinx3-234B.champsimtrace.xz
.xz
CPU 0 Bimodal branch predictor
BTB has LRU replacement policy
ITLB has LRU replacement policy
DTLB has LRU replacement policy
STLB has LRU replacement policy
L1I has LRU replacement policy
L1D has LRU replacement policy
L2C has LRU replacement policy
LLC has LRU replacement policy
Heartbeat CPU 0 instructions: 10000000 cycles: 3094115 heartbeat IPC: 3.23194 cumulative IPC: 3.23194 (Simulation time: 0 hr 1 min 10 sec) 
Heartbeat CPU 0 instructions: 20000000 cycles: 6190133 heartbeat IPC: 3.22996 cumulative IPC: 3.23095 (Simulation time: 0 hr 2 min 29 sec) 
Heartbeat CPU 0 instructions: 30000001 cycles: 9283179 heartbeat IPC: 3.23306 cumulative IPC: 3.23165 (Simulation time: 0 hr 3 min 37 sec) 
Heartbeat CPU 0 instructions: 40000000 cycles: 12413705 heartbeat IPC: 3.19435 cumulative IPC: 3.22224 (Simulation time: 0 hr 4 min 43 sec) 
Heartbeat CPU 0 instructions: 50000000 cycles: 15461486 heartbeat IPC: 3.28108 cumulative IPC: 3.23384 (Simulation time: 0 hr 5 min 56 sec) 

Warmup complete CPU 0 instructions: 50000004 cycles: 15461487 (Simulation time: 0 hr 5 min 56 sec) 

Heartbeat CPU 0 instructions: 60000000 cycles: 28778854 heartbeat IPC: 0.750899 cumulative IPC: 0.750899 (Simulation time: 0 hr 7 min 28 sec) 
Heartbeat CPU 0 instructions: 70000001 cycles: 41523865 heartbeat IPC: 0.784621 cumulative IPC: 0.76739 (Simulation time: 0 hr 8 min 51 sec) 
Heartbeat CPU 0 instructions: 80000000 cycles: 54205831 heartbeat IPC: 0.788521 cumulative IPC: 0.774306 (Simulation time: 0 hr 9 min 55 sec) 
Heartbeat CPU 0 instructions: 90000001 cycles: 67062628 heartbeat IPC: 0.777799 cumulative IPC: 0.775177 (Simulation time: 0 hr 11 min 20 sec) 
Heartbeat CPU 0 instructions: 100000000 cycles: 80532443 heartbeat IPC: 0.742401 cumulative IPC: 0.768392 (Simulation time: 0 hr 12 min 38 sec) 
Finished CPU 0 instructions: 50000000 cycles: 65071088 cumulative IPC: 0.76839 (Simulation time: 0 hr 12 min 38 sec) 

ChampSim completed all CPUs

Region of Interest Statistics

CPU 0 cumulative IPC: 0.76839 instructions: 50000000 cycles: 65071088
ITLB TOTAL     ACCESS:    9694544  HIT:    9694544  MISS:          0  HIT %:        100  MISS %:          0   MPKI: 0
ITLB LOAD TRANSLATION ACCESS:    9694544  HIT:    9694544  MISS:          0  HIT %:        100  MISS %:          0   MPKI: 0
ITLB PREFETCH  REQUESTED:          0  ISSUED:          0  USEFUL:          0  USELESS:          0
ITLB USEFUL LOAD PREFETCHES:          0 PREFETCH ISSUED TO LOWER LEVEL:          0  ACCURACY: -nan
ITLB TIMELY PREFETCHES:          0 LATE PREFETCHES: 0 DROPPED PREFETCHES: 0
ITLB PREFETCHES SAME FILL-ORIGIN LEVEL: 0 DIFFERENT FILL-ORIGIN LEVEL: 0
ITLB AVERAGE MISS LATENCY: -nan cycles
ITLB RQ	ACCESS:   10500847	FORWARD:          0	MERGED:     806303	TO_CACHE:    9694544

DTLB TOTAL     ACCESS:    8381981  HIT:    8320098  MISS:      61883  HIT %:    99.2617  MISS %:   0.738286   MPKI: 1.23766
DTLB LOAD TRANSLATION ACCESS:    8381981  HIT:    8320098  MISS:      61883  HIT %:    99.2617  MISS %:   0.738286   MPKI: 1.23766
DTLB PREFETCH  REQUESTED:          0  ISSUED:          0  USEFUL:          0  USELESS:          0
DTLB USEFUL LOAD PREFETCHES:          0 PREFETCH ISSUED TO LOWER LEVEL:          0  ACCURACY: -nan
DTLB TIMELY PREFETCHES:          0 LATE PREFETCHES: 0 DROPPED PREFETCHES: 0
DTLB PREFETCHES SAME FILL-ORIGIN LEVEL: 0 DIFFERENT FILL-ORIGIN LEVEL: 0
DTLB AVERAGE MISS LATENCY: 19.4524 cycles
DTLB RQ	ACCESS:    9231853	FORWARD:          0	MERGED:     839231	TO_CACHE:    8392622

STLB TOTAL     ACCESS:     381746  HIT:     360510  MISS:      21236  HIT %:    94.4371  MISS %:    5.56286   MPKI: 0.42472
STLB LOAD TRANSLATION ACCESS:      61883  HIT:      56217  MISS:       5666  HIT %:     90.844  MISS %:    9.15599   MPKI: 0.11332
STLB TRANSLATION FROM L1D PREFETCHER ACCESS:     319863  HIT:     304293  MISS:      15570  HIT %:    95.1323  MISS %:    4.86771   MPKI: 0.3114
STLB PREFETCH  REQUESTED:          0  ISSUED:          0  USEFUL:      14096  USELESS:       1431
STLB USEFUL LOAD PREFETCHES:      14096 PREFETCH ISSUED TO LOWER LEVEL:          0  ACCURACY: inf
STLB TIMELY PREFETCHES:      14096 LATE PREFETCHES: 18 DROPPED PREFETCHES: 0
STLB PREFETCHES SAME FILL-ORIGIN LEVEL: 0 DIFFERENT FILL-ORIGIN LEVEL: 0
STLB AVERAGE MISS LATENCY: 79.1108 cycles
STLB RQ	ACCESS:     757478	FORWARD:          0	MERGED:     375670	TO_CACHE:     381808

STLB Hit, L1D data hit: 0
STLB Hit, L2C data hit: 0
STLB Hit, LLC data hit: 0
STLB Hit, LLC data miss: 0
STLB STLB hints to L2: 0
L1D TOTAL     ACCESS:    9256699  HIT:    8340148  MISS:     916551  HIT %:    90.0985  MISS %:    9.90149   MPKI: 18.331
L1D LOAD      ACCESS:    7883414  HIT:    7595483  MISS:     287931  HIT %:    96.3476  MISS %:    3.65236   MPKI: 5.75862
L1D RFO       ACCESS:     690361  HIT:     656290  MISS:      34071  HIT %:    95.0648  MISS %:    4.93524   MPKI: 0.68142
L1D PREFETCH  ACCESS:     682924  HIT:      88375  MISS:     594549  HIT %:    12.9407  MISS %:    87.0593   MPKI: 11.891
AGUS PREFETCH L1 MISS: 0
L1D PREFETCH  REQUESTED:    1437231  ISSUED:    1391190  USEFUL:     399580  USELESS:     195016
L1D USEFUL LOAD PREFETCHES:     399580 PREFETCH ISSUED TO LOWER LEVEL:     602370  ACCURACY: 66.3346
L1D TIMELY PREFETCHES:     399580 LATE PREFETCHES: 7809 DROPPED PREFETCHES: 0
L1D PREFETCHES SAME FILL-ORIGIN LEVEL: 602370 DIFFERENT FILL-ORIGIN LEVEL: 0
L1D AVERAGE MISS LATENCY: 124.918 cycles
L1D RQ	ACCESS:   12888794	FORWARD:          0	MERGED:    4502768	TO_CACHE:    8375020
L1D WQ	ACCESS:     858601	FORWARD:      11006	MERGED:       1768	TO_CACHE:     856833
L1D PQ	ACCESS:     695595	FORWARD:          0	MERGED:          0	TO_CACHE:     695595

L1D UNIQUE REGIONS ACCESSED: 0
L1D REGIONS CONFLICTS: 0
L1D Cross Page Prefetch Requests: 342943
L1D Same Page Prefetch Requests: 1085882
L1D ROI Sum of L1D PQ occupancy: 12697910
L1D PREFETCHES PUSHED FROM L2C: 0
L1I TOTAL     ACCESS:   10500845  HIT:   10500845  MISS:          0  HIT %:        100  MISS %:          0   MPKI: 0
L1I LOAD      ACCESS:   10500845  HIT:   10500845  MISS:          0  HIT %:        100  MISS %:          0   MPKI: 0
L1I PREFETCH  REQUESTED:          0  ISSUED:          0  USEFUL:          0  USELESS:          0
L1I USEFUL LOAD PREFETCHES:          0 PREFETCH ISSUED TO LOWER LEVEL:          0  ACCURACY: -nan
L1I TIMELY PREFETCHES:          0 LATE PREFETCHES: 0 DROPPED PREFETCHES: 0
L1I PREFETCHES SAME FILL-ORIGIN LEVEL: 0 DIFFERENT FILL-ORIGIN LEVEL: 0
L1I AVERAGE MISS LATENCY: -nan cycles
L1I RQ	ACCESS:   12694310	FORWARD:          0	MERGED:    2193463	TO_CACHE:   10500847

BTB TOTAL     ACCESS:    4309238  HIT:    4298945  MISS:      10293  HIT %:    99.7611  MISS %:   0.238859   MPKI: 0.20586
BTB BRANCH_DIRECT_JUMP	ACCESS:      86244  HIT:      86193  MISS:         51
BTB BRANCH_INDIRECT	ACCESS:          0  HIT:          0  MISS:          0
BTB BRANCH_CONDITIONAL	ACCESS:    4052274  HIT:    4052095  MISS:        179
BTB BRANCH_DIRECT_CALL	ACCESS:      85361  HIT:      85283  MISS:         78
BTB BRANCH_INDIRECT_CALL	ACCESS:          0  HIT:          0  MISS:          0
BTB BRANCH_RETURN	ACCESS:      85359  HIT:      75374  MISS:       9985
BTB BRANCH_OTHER ACCESS:          0  HIT:          0  MISS:          0

L2C TOTAL     ACCESS:     980136  HIT:     298264  MISS:     681872  HIT %:    30.4309  MISS %:    69.5691   MPKI: 13.6374
L2C LOAD      ACCESS:     280122  HIT:      96760  MISS:     183362  HIT %:    34.5421  MISS %:    65.4579   MPKI: 3.66724
L2C DATA LOAD MPKI: 3.66724
L2C INSTRUCTION LOAD MPKI: 0
L2C RFO       ACCESS:      34058  HIT:       2571  MISS:      31487  HIT %:    7.54889  MISS %:    92.4511   MPKI: 0.62974
L2C PREFETCH  ACCESS:     602370  HIT:     140097  MISS:     462273  HIT %:    23.2576  MISS %:    76.7424   MPKI: 9.24546
AGUS PREFETCH L1 MISS: 0
L2C DATA PREFETCH MPKI: 9.24546
L2C INSTRUCTION PREFETCH MPKI: 0
L2C WRITEBACK ACCESS:      42350  HIT:      42227  MISS:        123  HIT %:    99.7096  MISS %:   0.290437   MPKI: 0.00246
L2C LOAD TRANSLATION ACCESS:       5648  HIT:       3717  MISS:       1931  HIT %:    65.8109  MISS %:    34.1891   MPKI: 0.03862
L2C TRANSLATION FROM L1D PREFETCHER ACCESS:      15588  HIT:      12892  MISS:       2696  HIT %:    82.7046  MISS %:    17.2954   MPKI: 0.05392
L2C PREFETCH  REQUESTED:          0  ISSUED:          0  USEFUL:      15433  USELESS:     449696
L2C USEFUL LOAD PREFETCHES:      15433 PREFETCH ISSUED TO LOWER LEVEL:     462273  ACCURACY: 3.3385
L2C TIMELY PREFETCHES:      15433 LATE PREFETCHES: 0 DROPPED PREFETCHES: 0
L2C PREFETCHES SAME FILL-ORIGIN LEVEL: 0 DIFFERENT FILL-ORIGIN LEVEL: 0
L2C AVERAGE MISS LATENCY: 148.486 cycles
L2C RQ	ACCESS:     335417	FORWARD:          0	MERGED:          0	TO_CACHE:     335416
L2C WQ	ACCESS:      42350	FORWARD:          1	MERGED:          0	TO_CACHE:      42350
L2C PQ	ACCESS:     602370	FORWARD:          0	MERGED:          0	TO_CACHE:     602370

L2C Instructions Evicting Data 0
L2C Translations Evicting Data 4612
L2C Data Evicting Data 672514
L2C Instructions Evicting Instructions 0
L2C Translations Evicting Instructions 0
L2C Data Evicting Instructions 0
L2C Instructions Evicting Translations 0
L2C Translations Evicting Translations 15
L2C Data Evicting Translations 4608
L2C Dense regions hint from L2: 0
PSCL5 TOTAL     ACCESS:      21236  HIT:      21236  MISS:          0  HIT %:        100  MISS %:          0   MPKI: 0
PSCL5 LOAD TRANSLATION ACCESS:       5648  HIT:       5648  MISS:          0  HIT %:        100  MISS %:          0   MPKI: 0
PSCL5 TRANSLATION FROM L1D PREFETCHER ACCESS:      15588  HIT:      15588  MISS:          0  HIT %:        100  MISS %:          0   MPKI: 0
PSCL5 PREFETCH  REQUESTED:          0  ISSUED:          0  USEFUL:          0  USELESS:          0
PSCL5 USEFUL LOAD PREFETCHES:          0 PREFETCH ISSUED TO LOWER LEVEL:          0  ACCURACY: -nan
PSCL5 TIMELY PREFETCHES:          0 LATE PREFETCHES: 0 DROPPED PREFETCHES: 0
PSCL5 PREFETCHES SAME FILL-ORIGIN LEVEL: 0 DIFFERENT FILL-ORIGIN LEVEL: 0

PSCL4 TOTAL     ACCESS:      21236  HIT:      21236  MISS:          0  HIT %:        100  MISS %:          0   MPKI: 0
PSCL4 LOAD TRANSLATION ACCESS:       5648  HIT:       5648  MISS:          0  HIT %:        100  MISS %:          0   MPKI: 0
PSCL4 TRANSLATION FROM L1D PREFETCHER ACCESS:      15588  HIT:      15588  MISS:          0  HIT %:        100  MISS %:          0   MPKI: 0
PSCL4 PREFETCH  REQUESTED:          0  ISSUED:          0  USEFUL:          0  USELESS:          0
PSCL4 USEFUL LOAD PREFETCHES:          0 PREFETCH ISSUED TO LOWER LEVEL:          0  ACCURACY: -nan
PSCL4 TIMELY PREFETCHES:          0 LATE PREFETCHES: 0 DROPPED PREFETCHES: 0
PSCL4 PREFETCHES SAME FILL-ORIGIN LEVEL: 0 DIFFERENT FILL-ORIGIN LEVEL: 0

PSCL3 TOTAL     ACCESS:      21236  HIT:      21236  MISS:          0  HIT %:        100  MISS %:          0   MPKI: 0
PSCL3 LOAD TRANSLATION ACCESS:       5648  HIT:       5648  MISS:          0  HIT %:        100  MISS %:          0   MPKI: 0
PSCL3 TRANSLATION FROM L1D PREFETCHER ACCESS:      15588  HIT:      15588  MISS:          0  HIT %:        100  MISS %:          0   MPKI: 0
PSCL3 PREFETCH  REQUESTED:          0  ISSUED:          0  USEFUL:          0  USELESS:          0
PSCL3 USEFUL LOAD PREFETCHES:          0 PREFETCH ISSUED TO LOWER LEVEL:          0  ACCURACY: -nan
PSCL3 TIMELY PREFETCHES:          0 LATE PREFETCHES: 0 DROPPED PREFETCHES: 0
PSCL3 PREFETCHES SAME FILL-ORIGIN LEVEL: 0 DIFFERENT FILL-ORIGIN LEVEL: 0

PSCL2 TOTAL     ACCESS:      21236  HIT:      21236  MISS:          0  HIT %:        100  MISS %:          0   MPKI: 0
PSCL2 LOAD TRANSLATION ACCESS:       5648  HIT:       5648  MISS:          0  HIT %:        100  MISS %:          0   MPKI: 0
PSCL2 TRANSLATION FROM L1D PREFETCHER ACCESS:      15588  HIT:      15588  MISS:          0  HIT %:        100  MISS %:          0   MPKI: 0
PSCL2 PREFETCH  REQUESTED:          0  ISSUED:          0  USEFUL:          0  USELESS:          0
PSCL2 USEFUL LOAD PREFETCHES:          0 PREFETCH ISSUED TO LOWER LEVEL:          0  ACCURACY: -nan
PSCL2 TIMELY PREFETCHES:          0 LATE PREFETCHES: 0 DROPPED PREFETCHES: 0
PSCL2 PREFETCHES SAME FILL-ORIGIN LEVEL: 0 DIFFERENT FILL-ORIGIN LEVEL: 0

LLC TOTAL     ACCESS:     719999  HIT:      71288  MISS:     648711  HIT %:    9.90112  MISS %:    90.0989   MPKI: 12.9742
LLC LOAD      ACCESS:     183362  HIT:      11590  MISS:     171772  HIT %:    6.32083  MISS %:    93.6792   MPKI: 3.43544
LLC RFO       ACCESS:      31487  HIT:       4586  MISS:      26901  HIT %:    14.5647  MISS %:    85.4353   MPKI: 0.53802
LLC PREFETCH  ACCESS:     462273  HIT:      18074  MISS:     444199  HIT %:    3.90981  MISS %:    96.0902   MPKI: 8.88398
AGUS PREFETCH L1 MISS: 0
LLC WRITEBACK ACCESS:      38250  HIT:      36878  MISS:       1372  HIT %:    96.4131  MISS %:    3.58693   MPKI: 0.02744
LLC LOAD TRANSLATION ACCESS:       1931  HIT:         91  MISS:       1840  HIT %:    4.71258  MISS %:    95.2874   MPKI: 0.0368
LLC TRANSLATION FROM L1D PREFETCHER ACCESS:       2696  HIT:         69  MISS:       2627  HIT %:    2.55935  MISS %:    97.4407   MPKI: 0.05254
LLC PREFETCH  REQUESTED:          0  ISSUED:          0  USEFUL:       5050  USELESS:     442671
LLC USEFUL LOAD PREFETCHES:       5050 PREFETCH ISSUED TO LOWER LEVEL:     444199  ACCURACY: 1.13688
LLC TIMELY PREFETCHES:       5050 LATE PREFETCHES: 0 DROPPED PREFETCHES: 0
LLC PREFETCHES SAME FILL-ORIGIN LEVEL: 0 DIFFERENT FILL-ORIGIN LEVEL: 0
LLC AVERAGE MISS LATENCY: 124.547 cycles
LLC RQ	ACCESS:     219476	FORWARD:          0	MERGED:          0	TO_CACHE:     219476
LLC WQ	ACCESS:      38250	FORWARD:          0	MERGED:          0	TO_CACHE:      38250
LLC PQ	ACCESS:     462273	FORWARD:          0	MERGED:          0	TO_CACHE:     462273

LLC Dense regions hint to LLC: 0

RAW hits: 56966
Loads Generated: 12945760
Loads sent to L1D: 12888794
Stores Generated: 858602
Stores sent to L1D: 858601
Major fault: 0 Minor fault: 4120
Allocated PAGES: 4120

stream: 
stream:times selected: 615418
stream:pref_filled: 319493
stream:pref_useful: 154037
stream:pref_late: 7881
stream:misses: 165946
stream:misses_by_poll: 0

CS: 
CS:times selected: 33579
CS:pref_filled: 74407
CS:pref_useful: 63056
CS:pref_late: 16
CS:misses: 59124
CS:misses_by_poll: 3

CPLX: 
CPLX:times selected: 578939
CPLX:pref_filled: 35311
CPLX:pref_useful: 23757
CPLX:pref_late: 41
CPLX:misses: 887287
CPLX:misses_by_poll: 2

NL_L1: 
NL:times selected: 910
NL:pref_filled: 641
NL:pref_useful: 339
NL:pref_late: 7
NL:misses: 1269
NL:misses_by_poll: 0

Coverage: 58.1198
total selections: 1228846
total_filled: 594549
total_useful: 399580
total_late: 8875
total_polluted: 5
total_misses_after_warmup: 779539
conflicts: 6275

test: 211511
ISB Prefetcher final stats
Training Unit Size: 196
Addr table size: 132788 132794


Triggers: 615422
No Prediction: 176279 28.6436
Stream end: 353829
No translation: 359514726 58417.6
Predictions: 861585 139.999


Stream divergence: 172432 28.0185
Stream divergence -- new stream: 0

DRAM Statistics
 CHANNEL 0
 RQ ROW_BUFFER_HIT:     419828  ROW_BUFFER_MISS:     227511
 DBUS_CONGESTED:        158
 WQ ROW_BUFFER_HIT:       5775  ROW_BUFFER_MISS:      30338  FULL:          0

 AVG_CONGESTED_CYCLE: 4
 All warmup complete: 2
Channel 0 Bank busy for read cycles: 0
Channel 0 Bank busy for write cycles: 0
Channel 0
Rank 0
0banks busy for read cycles: 38348338
0banks busy for write cycles: 18304
1banks busy for read cycles: 9902650
1banks busy for write cycles: 2313040
2banks busy for read cycles: 4936599
2banks busy for write cycles: 790606
3banks busy for read cycles: 2866805
3banks busy for write cycles: 340253
4banks busy for read cycles: 1890483
4banks busy for write cycles: 171235
5banks busy for read cycles: 1549911
5banks busy for write cycles: 79027
6banks busy for read cycles: 1236010
6banks busy for write cycles: 41528
7banks busy for read cycles: 480256
7banks busy for write cycles: 17606
8banks busy for read cycles: 81816
8banks busy for write cycles: 6622

CPU 0 Branch Prediction Accuracy: 95.9006% MPKI: 3.75386 Average ROB Occupancy at Mispredict: 88.5168
Branch types
NOT_BRANCH: 45421623 90.8432%
BRANCH_DIRECT_JUMP: 86244 0.172488%
BRANCH_INDIRECT: 0 0%
BRANCH_CONDITIONAL: 4321587 8.64317%
BRANCH_DIRECT_CALL: 85361 0.170722%
BRANCH_INDIRECT_CALL: 0 0%
BRANCH_RETURN: 85359 0.170718%
BRANCH_OTHER: 0 0%

DRAM PAGES: 1048576
Allocated PAGES: 4120
