
*** ChampSim Multicore Out-of-Order Simulator ***

Warmup Instructions: 50000000
Simulation Instructions: 50000000
Number of CPUs: 1
LLC sets: 2048
LLC ways: 16
Off-chip DRAM Size: 4096 MB Channels: 1 Width: 64-bit Data Rate: 6400 MT/s
CPU 0 runs ./traces/SPEC-CPU2017/602.gcc_s-2226B.champsimtrace.xz
.xz
CPU 0 Bimodal branch predictor
BTB has LRU replacement policy
ITLB has LRU replacement policy
DTLB has LRU replacement policy
STLB has LRU replacement policy
L1I has LRU replacement policy
L1D has LRU replacement policy
L2C has LRU replacement policy
LLC has LRU replacement policy
Heartbeat CPU 0 instructions: 10000001 cycles: 3766088 heartbeat IPC: 2.65528 cumulative IPC: 2.65528 (Simulation time: 0 hr 1 min 43 sec) 
Heartbeat CPU 0 instructions: 20000000 cycles: 7533380 heartbeat IPC: 2.65443 cumulative IPC: 2.65485 (Simulation time: 0 hr 3 min 18 sec) 
Heartbeat CPU 0 instructions: 30000001 cycles: 11295844 heartbeat IPC: 2.65783 cumulative IPC: 2.65584 (Simulation time: 0 hr 4 min 35 sec) 
Heartbeat CPU 0 instructions: 40000000 cycles: 15055806 heartbeat IPC: 2.6596 cumulative IPC: 2.65678 (Simulation time: 0 hr 6 min 32 sec) 
Heartbeat CPU 0 instructions: 50000000 cycles: 18813704 heartbeat IPC: 2.66106 cumulative IPC: 2.65764 (Simulation time: 0 hr 8 min 30 sec) 

Warmup complete CPU 0 instructions: 50000004 cycles: 18813705 (Simulation time: 0 hr 8 min 30 sec) 

Heartbeat CPU 0 instructions: 60000000 cycles: 54340076 heartbeat IPC: 0.281481 cumulative IPC: 0.281481 (Simulation time: 0 hr 10 min 10 sec) 
Heartbeat CPU 0 instructions: 70000000 cycles: 89684776 heartbeat IPC: 0.282928 cumulative IPC: 0.282203 (Simulation time: 0 hr 11 min 39 sec) 
Heartbeat CPU 0 instructions: 80000000 cycles: 125219287 heartbeat IPC: 0.281417 cumulative IPC: 0.28194 (Simulation time: 0 hr 13 min 0 sec) 
Heartbeat CPU 0 instructions: 90000001 cycles: 160922571 heartbeat IPC: 0.280086 cumulative IPC: 0.281474 (Simulation time: 0 hr 14 min 22 sec) 
Heartbeat CPU 0 instructions: 100000000 cycles: 196497508 heartbeat IPC: 0.281097 cumulative IPC: 0.281399 (Simulation time: 0 hr 15 min 36 sec) 
Finished CPU 0 instructions: 50000001 cycles: 177683823 cumulative IPC: 0.281399 (Simulation time: 0 hr 15 min 36 sec) 

ChampSim completed all CPUs

Region of Interest Statistics

CPU 0 cumulative IPC: 0.281399 instructions: 50000001 cycles: 177683823
ITLB TOTAL     ACCESS:   11426797  HIT:   11426797  MISS:          0  HIT %:        100  MISS %:          0   MPKI: 0
ITLB LOAD TRANSLATION ACCESS:   11426797  HIT:   11426797  MISS:          0  HIT %:        100  MISS %:          0   MPKI: 0
ITLB PREFETCH  REQUESTED:          0  ISSUED:          0  USEFUL:          0  USELESS:          0
ITLB USEFUL LOAD PREFETCHES:          0 PREFETCH ISSUED TO LOWER LEVEL:          0  ACCURACY: -nan
ITLB TIMELY PREFETCHES:          0 LATE PREFETCHES: 0 DROPPED PREFETCHES: 0
ITLB PREFETCHES SAME FILL-ORIGIN LEVEL: 0 DIFFERENT FILL-ORIGIN LEVEL: 0
ITLB AVERAGE MISS LATENCY: -nan cycles
ITLB RQ	ACCESS:   11599650	FORWARD:          0	MERGED:     172854	TO_CACHE:   11426796

DTLB TOTAL     ACCESS:    7730137  HIT:    7661647  MISS:      68490  HIT %:     99.114  MISS %:   0.886013   MPKI: 1.3698
DTLB LOAD TRANSLATION ACCESS:    7730137  HIT:    7661647  MISS:      68490  HIT %:     99.114  MISS %:   0.886013   MPKI: 1.3698
DTLB PREFETCH  REQUESTED:          0  ISSUED:          0  USEFUL:          0  USELESS:          0
DTLB USEFUL LOAD PREFETCHES:          0 PREFETCH ISSUED TO LOWER LEVEL:          0  ACCURACY: -nan
DTLB TIMELY PREFETCHES:          0 LATE PREFETCHES: 0 DROPPED PREFETCHES: 0
DTLB PREFETCHES SAME FILL-ORIGIN LEVEL: 0 DIFFERENT FILL-ORIGIN LEVEL: 0
DTLB AVERAGE MISS LATENCY: 24.5471 cycles
DTLB RQ	ACCESS:    9094469	FORWARD:          0	MERGED:    1364259	TO_CACHE:    7730210

STLB TOTAL     ACCESS:     755394  HIT:     689277  MISS:      66117  HIT %:    91.2473  MISS %:    8.75265   MPKI: 1.32234
STLB LOAD TRANSLATION ACCESS:      68489  HIT:      51271  MISS:      17218  HIT %:    74.8602  MISS %:    25.1398   MPKI: 0.34436
STLB TRANSLATION FROM L1D PREFETCHER ACCESS:     686905  HIT:     638006  MISS:      48899  HIT %:    92.8813  MISS %:    7.11874   MPKI: 0.97798
STLB PREFETCH  REQUESTED:          0  ISSUED:          0  USEFUL:      48872  USELESS:         18
STLB USEFUL LOAD PREFETCHES:      48872 PREFETCH ISSUED TO LOWER LEVEL:          0  ACCURACY: inf
STLB TIMELY PREFETCHES:      48872 LATE PREFETCHES: 257 DROPPED PREFETCHES: 0
STLB PREFETCHES SAME FILL-ORIGIN LEVEL: 0 DIFFERENT FILL-ORIGIN LEVEL: 0
STLB AVERAGE MISS LATENCY: 85.3852 cycles
STLB RQ	ACCESS:    3260229	FORWARD:          0	MERGED:    2504048	TO_CACHE:     756181

STLB Hit, L1D data hit: 0
STLB Hit, L2C data hit: 0
STLB Hit, LLC data hit: 0
STLB Hit, LLC data miss: 0
STLB STLB hints to L2: 0
L1D TOTAL     ACCESS:   12051478  HIT:    8407512  MISS:    3643966  HIT %:    69.7633  MISS %:    30.2367   MPKI: 72.8793
L1D LOAD      ACCESS:    8233439  HIT:    7646336  MISS:     587103  HIT %:    92.8693  MISS %:    7.13071   MPKI: 11.7421
L1D RFO       ACCESS:     654415  HIT:     653557  MISS:        858  HIT %:    99.8689  MISS %:   0.131109   MPKI: 0.01716
L1D PREFETCH  ACCESS:    3163624  HIT:     107619  MISS:    3056005  HIT %:    3.40176  MISS %:    96.5982   MPKI: 61.1201
AGUS PREFETCH L1 MISS: 0
L1D PREFETCH  REQUESTED:    6770799  ISSUED:    6383480  USEFUL:    2918645  USELESS:     137359
L1D USEFUL LOAD PREFETCHES:    2918645 PREFETCH ISSUED TO LOWER LEVEL:    3081143  ACCURACY: 94.726
L1D TIMELY PREFETCHES:    2918645 LATE PREFETCHES: 25136 DROPPED PREFETCHES: 0
L1D PREFETCHES SAME FILL-ORIGIN LEVEL: 3081143 DIFFERENT FILL-ORIGIN LEVEL: 0
L1D AVERAGE MISS LATENCY: 127.169 cycles
L1D RQ	ACCESS:   17950624	FORWARD:          0	MERGED:    9509074	TO_CACHE:    8440050
L1D WQ	ACCESS:     726205	FORWARD:       1500	MERGED:      71786	TO_CACHE:     654419
L1D PQ	ACCESS:    3191740	FORWARD:          0	MERGED:          0	TO_CACHE:    3191740

L1D UNIQUE REGIONS ACCESSED: 0
L1D REGIONS CONFLICTS: 0
L1D Cross Page Prefetch Requests: 251599
L1D Same Page Prefetch Requests: 6079930
L1D ROI Sum of L1D PQ occupancy: 56081571
L1D PREFETCHES PUSHED FROM L2C: 0
L1I TOTAL     ACCESS:   11599650  HIT:   11599650  MISS:          0  HIT %:        100  MISS %:          0   MPKI: 0
L1I LOAD      ACCESS:   11599650  HIT:   11599650  MISS:          0  HIT %:        100  MISS %:          0   MPKI: 0
L1I PREFETCH  REQUESTED:          0  ISSUED:          0  USEFUL:          0  USELESS:          0
L1I USEFUL LOAD PREFETCHES:          0 PREFETCH ISSUED TO LOWER LEVEL:          0  ACCURACY: -nan
L1I TIMELY PREFETCHES:          0 LATE PREFETCHES: 0 DROPPED PREFETCHES: 0
L1I PREFETCHES SAME FILL-ORIGIN LEVEL: 0 DIFFERENT FILL-ORIGIN LEVEL: 0
L1I AVERAGE MISS LATENCY: -nan cycles
L1I RQ	ACCESS:   16474921	FORWARD:          0	MERGED:    4875271	TO_CACHE:   11599650

BTB TOTAL     ACCESS:   11928195  HIT:   11928097  MISS:         98  HIT %:    99.9992  MISS %: 0.000821583   MPKI: 0.00196
BTB BRANCH_DIRECT_JUMP	ACCESS:     168848  HIT:     168822  MISS:         26
BTB BRANCH_INDIRECT	ACCESS:          0  HIT:          0  MISS:          0
BTB BRANCH_CONDITIONAL	ACCESS:   11592637  HIT:   11592588  MISS:         49
BTB BRANCH_DIRECT_CALL	ACCESS:      83355  HIT:      83345  MISS:         10
BTB BRANCH_INDIRECT_CALL	ACCESS:          0  HIT:          0  MISS:          0
BTB BRANCH_RETURN	ACCESS:      83355  HIT:      83342  MISS:         13
BTB BRANCH_OTHER ACCESS:          0  HIT:          0  MISS:          0

L2C TOTAL     ACCESS:    3717310  HIT:     118186  MISS:    3599124  HIT %:    3.17934  MISS %:    96.8207   MPKI: 71.9825
L2C LOAD      ACCESS:     561964  HIT:      14254  MISS:     547710  HIT %:    2.53646  MISS %:    97.4635   MPKI: 10.9542
L2C DATA LOAD MPKI: 10.9542
L2C INSTRUCTION LOAD MPKI: 0
L2C RFO       ACCESS:        856  HIT:        524  MISS:        332  HIT %:     61.215  MISS %:     38.785   MPKI: 0.00664
L2C PREFETCH  ACCESS:    3081143  HIT:      45919  MISS:    3035224  HIT %:    1.49032  MISS %:    98.5097   MPKI: 60.7045
AGUS PREFETCH L1 MISS: 0
L2C DATA PREFETCH MPKI: 60.7045
L2C INSTRUCTION PREFETCH MPKI: 0
L2C WRITEBACK ACCESS:       5646  HIT:       5610  MISS:         36  HIT %:    99.3624  MISS %:    0.63762   MPKI: 0.00072
L2C LOAD TRANSLATION ACCESS:      17242  HIT:      13999  MISS:       3243  HIT %:    81.1913  MISS %:    18.8087   MPKI: 0.06486
L2C TRANSLATION FROM L1D PREFETCHER ACCESS:      50459  HIT:      37880  MISS:      12579  HIT %:    75.0708  MISS %:    24.9292   MPKI: 0.25158
L2C PREFETCH  REQUESTED:          0  ISSUED:          0  USEFUL:      23261  USELESS:    3024610
L2C USEFUL LOAD PREFETCHES:      23261 PREFETCH ISSUED TO LOWER LEVEL:    3035224  ACCURACY: 0.766368
L2C TIMELY PREFETCHES:      23261 LATE PREFETCHES: 0 DROPPED PREFETCHES: 0
L2C PREFETCHES SAME FILL-ORIGIN LEVEL: 0 DIFFERENT FILL-ORIGIN LEVEL: 0
L2C AVERAGE MISS LATENCY: 113.319 cycles
L2C RQ	ACCESS:     630524	FORWARD:          0	MERGED:          0	TO_CACHE:     630521
L2C WQ	ACCESS:       5646	FORWARD:          3	MERGED:          0	TO_CACHE:       5646
L2C PQ	ACCESS:    3081143	FORWARD:          0	MERGED:          0	TO_CACHE:    3081143

L2C Instructions Evicting Data 0
L2C Translations Evicting Data 15773
L2C Data Evicting Data 3567502
L2C Instructions Evicting Instructions 0
L2C Translations Evicting Instructions 0
L2C Data Evicting Instructions 0
L2C Instructions Evicting Translations 0
L2C Translations Evicting Translations 49
L2C Data Evicting Translations 15764
L2C Dense regions hint from L2: 0
PSCL5 TOTAL     ACCESS:      66117  HIT:      66117  MISS:          0  HIT %:        100  MISS %:          0   MPKI: 0
PSCL5 LOAD TRANSLATION ACCESS:      16961  HIT:      16961  MISS:          0  HIT %:        100  MISS %:          0   MPKI: 0
PSCL5 TRANSLATION FROM L1D PREFETCHER ACCESS:      49156  HIT:      49156  MISS:          0  HIT %:        100  MISS %:          0   MPKI: 0
PSCL5 PREFETCH  REQUESTED:          0  ISSUED:          0  USEFUL:          0  USELESS:          0
PSCL5 USEFUL LOAD PREFETCHES:          0 PREFETCH ISSUED TO LOWER LEVEL:          0  ACCURACY: -nan
PSCL5 TIMELY PREFETCHES:          0 LATE PREFETCHES: 0 DROPPED PREFETCHES: 0
PSCL5 PREFETCHES SAME FILL-ORIGIN LEVEL: 0 DIFFERENT FILL-ORIGIN LEVEL: 0

PSCL4 TOTAL     ACCESS:      66117  HIT:      66117  MISS:          0  HIT %:        100  MISS %:          0   MPKI: 0
PSCL4 LOAD TRANSLATION ACCESS:      16961  HIT:      16961  MISS:          0  HIT %:        100  MISS %:          0   MPKI: 0
PSCL4 TRANSLATION FROM L1D PREFETCHER ACCESS:      49156  HIT:      49156  MISS:          0  HIT %:        100  MISS %:          0   MPKI: 0
PSCL4 PREFETCH  REQUESTED:          0  ISSUED:          0  USEFUL:          0  USELESS:          0
PSCL4 USEFUL LOAD PREFETCHES:          0 PREFETCH ISSUED TO LOWER LEVEL:          0  ACCURACY: -nan
PSCL4 TIMELY PREFETCHES:          0 LATE PREFETCHES: 0 DROPPED PREFETCHES: 0
PSCL4 PREFETCHES SAME FILL-ORIGIN LEVEL: 0 DIFFERENT FILL-ORIGIN LEVEL: 0

PSCL3 TOTAL     ACCESS:      65998  HIT:      65991  MISS:          7  HIT %:    99.9894  MISS %:  0.0106064   MPKI: 0.00014
PSCL3 LOAD TRANSLATION ACCESS:      16939  HIT:      16932  MISS:          7  HIT %:    99.9587  MISS %:  0.0413248   MPKI: 0.00014
PSCL3 TRANSLATION FROM L1D PREFETCHER ACCESS:      49059  HIT:      49059  MISS:          0  HIT %:        100  MISS %:          0   MPKI: 0
PSCL3 PREFETCH  REQUESTED:          0  ISSUED:          0  USEFUL:          0  USELESS:          0
PSCL3 USEFUL LOAD PREFETCHES:          0 PREFETCH ISSUED TO LOWER LEVEL:          0  ACCURACY: -nan
PSCL3 TIMELY PREFETCHES:          0 LATE PREFETCHES: 0 DROPPED PREFETCHES: 0
PSCL3 PREFETCHES SAME FILL-ORIGIN LEVEL: 0 DIFFERENT FILL-ORIGIN LEVEL: 0

PSCL2 TOTAL     ACCESS:      66117  HIT:      64539  MISS:       1578  HIT %:    97.6133  MISS %:    2.38668   MPKI: 0.03156
PSCL2 LOAD TRANSLATION ACCESS:      18259  HIT:      16681  MISS:       1578  HIT %:    91.3577  MISS %:    8.64231   MPKI: 0.03156
PSCL2 TRANSLATION FROM L1D PREFETCHER ACCESS:      47858  HIT:      47858  MISS:          0  HIT %:        100  MISS %:          0   MPKI: 0
PSCL2 PREFETCH  REQUESTED:          0  ISSUED:          0  USEFUL:          0  USELESS:          0
PSCL2 USEFUL LOAD PREFETCHES:          0 PREFETCH ISSUED TO LOWER LEVEL:          0  ACCURACY: -nan
PSCL2 TIMELY PREFETCHES:          0 LATE PREFETCHES: 0 DROPPED PREFETCHES: 0
PSCL2 PREFETCHES SAME FILL-ORIGIN LEVEL: 0 DIFFERENT FILL-ORIGIN LEVEL: 0

LLC TOTAL     ACCESS:    3604724  HIT:       9094  MISS:    3595630  HIT %:    0.25228  MISS %:    99.7477   MPKI: 71.9126
LLC LOAD      ACCESS:     547710  HIT:        626  MISS:     547084  HIT %:   0.114294  MISS %:    99.8857   MPKI: 10.9417
LLC RFO       ACCESS:        332  HIT:          2  MISS:        330  HIT %:    0.60241  MISS %:    99.3976   MPKI: 0.0066
LLC PREFETCH  ACCESS:    3035224  HIT:       1914  MISS:    3033310  HIT %:  0.0630596  MISS %:    99.9369   MPKI: 60.6662
AGUS PREFETCH L1 MISS: 0
LLC WRITEBACK ACCESS:       5636  HIT:       5605  MISS:         31  HIT %:      99.45  MISS %:   0.550035   MPKI: 0.00062
LLC LOAD TRANSLATION ACCESS:       3243  HIT:        205  MISS:       3038  HIT %:    6.32131  MISS %:    93.6787   MPKI: 0.06076
LLC TRANSLATION FROM L1D PREFETCHER ACCESS:      12579  HIT:        742  MISS:      11837  HIT %:    5.89872  MISS %:    94.1013   MPKI: 0.23674
LLC PREFETCH  REQUESTED:          0  ISSUED:          0  USEFUL:        670  USELESS:    3044618
LLC USEFUL LOAD PREFETCHES:        670 PREFETCH ISSUED TO LOWER LEVEL:    3033310  ACCURACY: 0.0220881
LLC TIMELY PREFETCHES:        670 LATE PREFETCHES: 0 DROPPED PREFETCHES: 0
LLC PREFETCHES SAME FILL-ORIGIN LEVEL: 0 DIFFERENT FILL-ORIGIN LEVEL: 0
LLC AVERAGE MISS LATENCY: 83.4001 cycles
LLC RQ	ACCESS:     563864	FORWARD:          0	MERGED:          0	TO_CACHE:     563864
LLC WQ	ACCESS:       5636	FORWARD:          0	MERGED:          0	TO_CACHE:       5636
LLC PQ	ACCESS:    3035224	FORWARD:          0	MERGED:          0	TO_CACHE:    3035224

LLC Dense regions hint to LLC: 0

RAW hits: 3980
Loads Generated: 17954604
Loads sent to L1D: 17950624
Stores Generated: 726205
Stores sent to L1D: 726205
Major fault: 0 Minor fault: 48887
Allocated PAGES: 48887

stream: 
stream:times selected: 1189362
stream:pref_filled: 5090365
stream:pref_useful: 4871973
stream:pref_late: 87534
stream:misses: 260003
stream:misses_by_poll: 0

CS: 
CS:times selected: 132572
CS:pref_filled: 208609
CS:pref_useful: 205458
CS:pref_late: 97
CS:misses: 159195
CS:misses_by_poll: 110

CPLX: 
CPLX:times selected: 1055575
CPLX:pref_filled: 312359
CPLX:pref_useful: 288573
CPLX:pref_late: 148
CPLX:misses: 1489495
CPLX:misses_by_poll: 347

NL_L1: 
NL:times selected: 1491
NL:pref_filled: 1450
NL:pref_useful: 1438
NL:pref_late: 7
NL:misses: 1994
NL:misses_by_poll: 0

Coverage: 83.2531
total selections: 2379000
total_filled: 3056005
total_useful: 2918645
total_late: 90649
total_polluted: 457
total_misses_after_warmup: 793714
conflicts: 148

test: 180320
ISB Prefetcher final stats
Training Unit Size: 30
Addr table size: 886751 886752


Triggers: 1189364
No Prediction: 886972 74.5753
Stream end: 64658
No translation: 63657932 5352.27
Predictions: 507014 42.629


Stream divergence: 268218 22.5514
Stream divergence -- new stream: 0

DRAM Statistics
 CHANNEL 0
 RQ ROW_BUFFER_HIT:    3336485  ROW_BUFFER_MISS:     259114
 DBUS_CONGESTED:         58
 WQ ROW_BUFFER_HIT:        360  ROW_BUFFER_MISS:       5288  FULL:          0

 AVG_CONGESTED_CYCLE: 4
 All warmup complete: 2
Channel 0 Bank busy for read cycles: 0
Channel 0 Bank busy for write cycles: 0
Channel 0
Rank 0
0banks busy for read cycles: 118737298
0banks busy for write cycles: 4068
1banks busy for read cycles: 20419678
1banks busy for write cycles: 578228
2banks busy for read cycles: 7204225
2banks busy for write cycles: 134199
3banks busy for read cycles: 3897629
3banks busy for write cycles: 38044
4banks busy for read cycles: 3414869
4banks busy for write cycles: 13574
5banks busy for read cycles: 5463388
5banks busy for write cycles: 3917
6banks busy for read cycles: 8510028
6banks busy for write cycles: 2440
7banks busy for read cycles: 6960868
7banks busy for write cycles: 211
8banks busy for read cycles: 2301160
8banks busy for write cycles: 0

CPU 0 Branch Prediction Accuracy: 99.1302% MPKI: 3.1024 Average ROB Occupancy at Mispredict: 98.9957
Branch types
NOT_BRANCH: 32166917 64.3338%
BRANCH_DIRECT_JUMP: 168848 0.337696%
BRANCH_INDIRECT: 0 0%
BRANCH_CONDITIONAL: 17497543 34.9951%
BRANCH_DIRECT_CALL: 83355 0.16671%
BRANCH_INDIRECT_CALL: 0 0%
BRANCH_RETURN: 83355 0.16671%
BRANCH_OTHER: 0 0%

DRAM PAGES: 1048576
Allocated PAGES: 48887
