
*** ChampSim Multicore Out-of-Order Simulator ***

Warmup Instructions: 50000000
Simulation Instructions: 50000000
Number of CPUs: 1
LLC sets: 2048
LLC ways: 16
Off-chip DRAM Size: 4096 MB Channels: 1 Width: 64-bit Data Rate: 6400 MT/s
CPU 0 runs ./traces/SPEC-CPU2017/619.lbm_s-2676B.champsimtrace.xz
.xz
CPU 0 Bimodal branch predictor
BTB has LRU replacement policy
ITLB has LRU replacement policy
DTLB has LRU replacement policy
STLB has LRU replacement policy
L1I has LRU replacement policy
L1D has LRU replacement policy
L2C has LRU replacement policy
LLC has LRU replacement policy
Heartbeat CPU 0 instructions: 10000000 cycles: 2981875 heartbeat IPC: 3.35359 cumulative IPC: 3.35359 (Simulation time: 0 hr 5 min 13 sec) 
Heartbeat CPU 0 instructions: 20000000 cycles: 5958670 heartbeat IPC: 3.35932 cumulative IPC: 3.35645 (Simulation time: 0 hr 10 min 7 sec) 
Heartbeat CPU 0 instructions: 30000002 cycles: 8928027 heartbeat IPC: 3.36773 cumulative IPC: 3.36021 (Simulation time: 0 hr 14 min 55 sec) 
Heartbeat CPU 0 instructions: 40000000 cycles: 11883840 heartbeat IPC: 3.38316 cumulative IPC: 3.36592 (Simulation time: 0 hr 18 min 20 sec) 
Heartbeat CPU 0 instructions: 50000003 cycles: 14826226 heartbeat IPC: 3.3986 cumulative IPC: 3.3724 (Simulation time: 0 hr 21 min 47 sec) 

Warmup complete CPU 0 instructions: 50000003 cycles: 14826226 (Simulation time: 0 hr 21 min 47 sec) 

Heartbeat CPU 0 instructions: 60000000 cycles: 30649195 heartbeat IPC: 0.631992 cumulative IPC: 0.631992 (Simulation time: 0 hr 25 min 4 sec) 
Heartbeat CPU 0 instructions: 70000001 cycles: 45698677 heartbeat IPC: 0.664475 cumulative IPC: 0.647827 (Simulation time: 0 hr 28 min 13 sec) 
Heartbeat CPU 0 instructions: 80000000 cycles: 59363337 heartbeat IPC: 0.731815 cumulative IPC: 0.673595 (Simulation time: 0 hr 31 min 7 sec) 
Heartbeat CPU 0 instructions: 90000001 cycles: 73066199 heartbeat IPC: 0.729775 cumulative IPC: 0.686813 (Simulation time: 0 hr 34 min 3 sec) 
Heartbeat CPU 0 instructions: 100000000 cycles: 85881497 heartbeat IPC: 0.780317 cumulative IPC: 0.703678 (Simulation time: 0 hr 36 min 52 sec) 
Finished CPU 0 instructions: 50000003 cycles: 71055296 cumulative IPC: 0.703677 (Simulation time: 0 hr 36 min 52 sec) 

ChampSim completed all CPUs

Region of Interest Statistics

CPU 0 cumulative IPC: 0.703677 instructions: 50000003 cycles: 71055296
ITLB TOTAL     ACCESS:    6712210  HIT:    6712210  MISS:          0  HIT %:        100  MISS %:          0   MPKI: 0
ITLB LOAD TRANSLATION ACCESS:    6712210  HIT:    6712210  MISS:          0  HIT %:        100  MISS %:          0   MPKI: 0
ITLB PREFETCH  REQUESTED:          0  ISSUED:          0  USEFUL:          0  USELESS:          0
ITLB USEFUL LOAD PREFETCHES:          0 PREFETCH ISSUED TO LOWER LEVEL:          0  ACCURACY: -nan
ITLB TIMELY PREFETCHES:          0 LATE PREFETCHES: 0 DROPPED PREFETCHES: 0
ITLB PREFETCHES SAME FILL-ORIGIN LEVEL: 0 DIFFERENT FILL-ORIGIN LEVEL: 0
ITLB AVERAGE MISS LATENCY: -nan cycles
ITLB RQ	ACCESS:    8770411	FORWARD:          0	MERGED:    2058201	TO_CACHE:    6712210

DTLB TOTAL     ACCESS:    7658613  HIT:    7610841  MISS:      47772  HIT %:    99.3762  MISS %:   0.623768   MPKI: 0.95544
DTLB LOAD TRANSLATION ACCESS:    7658613  HIT:    7610841  MISS:      47772  HIT %:    99.3762  MISS %:   0.623768   MPKI: 0.95544
DTLB PREFETCH  REQUESTED:          0  ISSUED:          0  USEFUL:          0  USELESS:          0
DTLB USEFUL LOAD PREFETCHES:          0 PREFETCH ISSUED TO LOWER LEVEL:          0  ACCURACY: -nan
DTLB TIMELY PREFETCHES:          0 LATE PREFETCHES: 0 DROPPED PREFETCHES: 0
DTLB PREFETCHES SAME FILL-ORIGIN LEVEL: 0 DIFFERENT FILL-ORIGIN LEVEL: 0
DTLB AVERAGE MISS LATENCY: 109.23 cycles
DTLB RQ	ACCESS:   11123932	FORWARD:          0	MERGED:    3450515	TO_CACHE:    7673417

STLB TOTAL     ACCESS:     291057  HIT:     265135  MISS:      25922  HIT %:    91.0938  MISS %:    8.90616   MPKI: 0.51844
STLB LOAD TRANSLATION ACCESS:      47772  HIT:      21850  MISS:      25922  HIT %:    45.7381  MISS %:    54.2619   MPKI: 0.51844
STLB TRANSLATION FROM L1D PREFETCHER ACCESS:     243285  HIT:     243285  MISS:          0  HIT %:        100  MISS %:          0   MPKI: 0
STLB PREFETCH  REQUESTED:          0  ISSUED:          0  USEFUL:          0  USELESS:          0
STLB USEFUL LOAD PREFETCHES:          0 PREFETCH ISSUED TO LOWER LEVEL:          0  ACCURACY: -nan
STLB TIMELY PREFETCHES:          0 LATE PREFETCHES: 0 DROPPED PREFETCHES: 0
STLB PREFETCHES SAME FILL-ORIGIN LEVEL: 0 DIFFERENT FILL-ORIGIN LEVEL: 0
STLB AVERAGE MISS LATENCY: 182.772 cycles
STLB RQ	ACCESS:     429130	FORWARD:          0	MERGED:     138073	TO_CACHE:     291057

STLB Hit, L1D data hit: 0
STLB Hit, L2C data hit: 0
STLB Hit, LLC data hit: 0
STLB Hit, LLC data miss: 0
STLB STLB hints to L2: 0
L1D TOTAL     ACCESS:   11381571  HIT:    8645086  MISS:    2736485  HIT %:    75.9569  MISS %:    24.0431   MPKI: 54.7297
L1D LOAD      ACCESS:    3910605  HIT:    3791381  MISS:     119224  HIT %:    96.9513  MISS %:    3.04874   MPKI: 2.38448
L1D RFO       ACCESS:    7149869  HIT:    4828016  MISS:    2321853  HIT %:    67.5259  MISS %:    32.4741   MPKI: 46.4371
L1D PREFETCH  ACCESS:     321097  HIT:      25689  MISS:     295408  HIT %:    8.00039  MISS %:    91.9996   MPKI: 5.90816
AGUS PREFETCH L1 MISS: 0
L1D PREFETCH  REQUESTED:     809711  ISSUED:     762716  USEFUL:     295405  USELESS:          0
L1D USEFUL LOAD PREFETCHES:     295405 PREFETCH ISSUED TO LOWER LEVEL:     330166  ACCURACY: 89.4717
L1D TIMELY PREFETCHES:     295405 LATE PREFETCHES: 34756 DROPPED PREFETCHES: 0
L1D PREFETCHES SAME FILL-ORIGIN LEVEL: 330166 DIFFERENT FILL-ORIGIN LEVEL: 0
L1D AVERAGE MISS LATENCY: 360.747 cycles
L1D RQ	ACCESS:   11605206	FORWARD:          0	MERGED:    5360190	TO_CACHE:    3948808
L1D WQ	ACCESS:    8231582	FORWARD:    2296208	MERGED:    1056458	TO_CACHE:    7175124
L1D PQ	ACCESS:     381358	FORWARD:          0	MERGED:          0	TO_CACHE:     381358

L1D UNIQUE REGIONS ACCESSED: 0
L1D REGIONS CONFLICTS: 0
L1D Cross Page Prefetch Requests: 275
L1D Same Page Prefetch Requests: 923502
L1D ROI Sum of L1D PQ occupancy: 146103096
L1D PREFETCHES PUSHED FROM L2C: 0
L1I TOTAL     ACCESS:    8770411  HIT:    8770411  MISS:          0  HIT %:        100  MISS %:          0   MPKI: 0
L1I LOAD      ACCESS:    8770411  HIT:    8770411  MISS:          0  HIT %:        100  MISS %:          0   MPKI: 0
L1I PREFETCH  REQUESTED:          0  ISSUED:          0  USEFUL:          0  USELESS:          0
L1I USEFUL LOAD PREFETCHES:          0 PREFETCH ISSUED TO LOWER LEVEL:          0  ACCURACY: -nan
L1I TIMELY PREFETCHES:          0 LATE PREFETCHES: 0 DROPPED PREFETCHES: 0
L1I PREFETCHES SAME FILL-ORIGIN LEVEL: 0 DIFFERENT FILL-ORIGIN LEVEL: 0
L1I AVERAGE MISS LATENCY: -nan cycles
L1I RQ	ACCESS:   12260749	FORWARD:          0	MERGED:    3490338	TO_CACHE:    8770411

BTB TOTAL     ACCESS:     696760  HIT:     696754  MISS:          6  HIT %:    99.9991  MISS %: 0.000861129   MPKI: 0.00012
BTB BRANCH_DIRECT_JUMP	ACCESS:      66227  HIT:      66226  MISS:          1
BTB BRANCH_INDIRECT	ACCESS:          0  HIT:          0  MISS:          0
BTB BRANCH_CONDITIONAL	ACCESS:     630533  HIT:     630528  MISS:          5
BTB BRANCH_DIRECT_CALL	ACCESS:          0  HIT:          0  MISS:          0
BTB BRANCH_INDIRECT_CALL	ACCESS:          0  HIT:          0  MISS:          0
BTB BRANCH_RETURN	ACCESS:          0  HIT:          0  MISS:          0
BTB BRANCH_OTHER ACCESS:          0  HIT:          0  MISS:          0

L2C TOTAL     ACCESS:    5084264  HIT:    3404165  MISS:    1680099  HIT %:    66.9549  MISS %:    33.0451   MPKI: 33.602
L2C LOAD      ACCESS:      84468  HIT:          1  MISS:      84467  HIT %: 0.00118388  MISS %:    99.9988   MPKI: 1.68934
L2C DATA LOAD MPKI: 1.68934
L2C INSTRUCTION LOAD MPKI: 0
L2C RFO       ACCESS:    2321853  HIT:    1059692  MISS:    1262161  HIT %:    45.6399  MISS %:    54.3601   MPKI: 25.2432
L2C PREFETCH  ACCESS:     330164  HIT:          0  MISS:     330164  HIT %:          0  MISS %:        100   MPKI: 6.60328
AGUS PREFETCH L1 MISS: 0
L2C DATA PREFETCH MPKI: 6.60328
L2C INSTRUCTION PREFETCH MPKI: 0
L2C WRITEBACK ACCESS:    2321855  HIT:    2321823  MISS:         32  HIT %:    99.9986  MISS %: 0.00137821   MPKI: 0.00064
L2C LOAD TRANSLATION ACCESS:      25924  HIT:      22649  MISS:       3275  HIT %:    87.3669  MISS %:    12.6331   MPKI: 0.0655
L2C PREFETCH  REQUESTED:          0  ISSUED:          0  USEFUL:          0  USELESS:     330359
L2C USEFUL LOAD PREFETCHES:          0 PREFETCH ISSUED TO LOWER LEVEL:     330166  ACCURACY: 0
L2C TIMELY PREFETCHES:          0 LATE PREFETCHES: 0 DROPPED PREFETCHES: 0
L2C PREFETCHES SAME FILL-ORIGIN LEVEL: 0 DIFFERENT FILL-ORIGIN LEVEL: 0
L2C AVERAGE MISS LATENCY: 563.413 cycles
L2C RQ	ACCESS:    2432254	FORWARD:          0	MERGED:          0	TO_CACHE:    2432254
L2C WQ	ACCESS:    2321857	FORWARD:          0	MERGED:          0	TO_CACHE:    2321857
L2C PQ	ACCESS:     330166	FORWARD:          0	MERGED:          0	TO_CACHE:     330166

L2C Instructions Evicting Data 0
L2C Translations Evicting Data 3258
L2C Data Evicting Data 1673535
L2C Instructions Evicting Instructions 0
L2C Translations Evicting Instructions 0
L2C Data Evicting Instructions 0
L2C Instructions Evicting Translations 0
L2C Translations Evicting Translations 17
L2C Data Evicting Translations 3257
L2C Dense regions hint from L2: 0
PSCL5 TOTAL     ACCESS:      25922  HIT:      25922  MISS:          0  HIT %:        100  MISS %:          0   MPKI: 0
PSCL5 LOAD TRANSLATION ACCESS:      25922  HIT:      25922  MISS:          0  HIT %:        100  MISS %:          0   MPKI: 0
PSCL5 PREFETCH  REQUESTED:          0  ISSUED:          0  USEFUL:          0  USELESS:          0
PSCL5 USEFUL LOAD PREFETCHES:          0 PREFETCH ISSUED TO LOWER LEVEL:          0  ACCURACY: -nan
PSCL5 TIMELY PREFETCHES:          0 LATE PREFETCHES: 0 DROPPED PREFETCHES: 0
PSCL5 PREFETCHES SAME FILL-ORIGIN LEVEL: 0 DIFFERENT FILL-ORIGIN LEVEL: 0

PSCL4 TOTAL     ACCESS:      25922  HIT:      25922  MISS:          0  HIT %:        100  MISS %:          0   MPKI: 0
PSCL4 LOAD TRANSLATION ACCESS:      25922  HIT:      25922  MISS:          0  HIT %:        100  MISS %:          0   MPKI: 0
PSCL4 PREFETCH  REQUESTED:          0  ISSUED:          0  USEFUL:          0  USELESS:          0
PSCL4 USEFUL LOAD PREFETCHES:          0 PREFETCH ISSUED TO LOWER LEVEL:          0  ACCURACY: -nan
PSCL4 TIMELY PREFETCHES:          0 LATE PREFETCHES: 0 DROPPED PREFETCHES: 0
PSCL4 PREFETCHES SAME FILL-ORIGIN LEVEL: 0 DIFFERENT FILL-ORIGIN LEVEL: 0

PSCL3 TOTAL     ACCESS:      25922  HIT:      25922  MISS:          0  HIT %:        100  MISS %:          0   MPKI: 0
PSCL3 LOAD TRANSLATION ACCESS:      25922  HIT:      25922  MISS:          0  HIT %:        100  MISS %:          0   MPKI: 0
PSCL3 PREFETCH  REQUESTED:          0  ISSUED:          0  USEFUL:          0  USELESS:          0
PSCL3 USEFUL LOAD PREFETCHES:          0 PREFETCH ISSUED TO LOWER LEVEL:          0  ACCURACY: -nan
PSCL3 TIMELY PREFETCHES:          0 LATE PREFETCHES: 0 DROPPED PREFETCHES: 0
PSCL3 PREFETCHES SAME FILL-ORIGIN LEVEL: 0 DIFFERENT FILL-ORIGIN LEVEL: 0

PSCL2 TOTAL     ACCESS:      25922  HIT:      25895  MISS:         27  HIT %:    99.8958  MISS %:   0.104159   MPKI: 0.00054
PSCL2 LOAD TRANSLATION ACCESS:      25922  HIT:      25895  MISS:         27  HIT %:    99.8958  MISS %:   0.104159   MPKI: 0.00054
PSCL2 PREFETCH  REQUESTED:          0  ISSUED:          0  USEFUL:          0  USELESS:          0
PSCL2 USEFUL LOAD PREFETCHES:          0 PREFETCH ISSUED TO LOWER LEVEL:          0  ACCURACY: -nan
PSCL2 TIMELY PREFETCHES:          0 LATE PREFETCHES: 0 DROPPED PREFETCHES: 0
PSCL2 PREFETCHES SAME FILL-ORIGIN LEVEL: 0 DIFFERENT FILL-ORIGIN LEVEL: 0

LLC TOTAL     ACCESS:    2942494  HIT:    1280732  MISS:    1661762  HIT %:    43.5254  MISS %:    56.4746   MPKI: 33.2352
LLC LOAD      ACCESS:      84467  HIT:          1  MISS:      84466  HIT %: 0.00118389  MISS %:    99.9988   MPKI: 1.68932
LLC RFO       ACCESS:    1262132  HIT:      18303  MISS:    1243829  HIT %:    1.45017  MISS %:    98.5498   MPKI: 24.8766
LLC PREFETCH  ACCESS:     330164  HIT:          0  MISS:     330164  HIT %:          0  MISS %:        100   MPKI: 6.60328
AGUS PREFETCH L1 MISS: 0
LLC WRITEBACK ACCESS:    1262456  HIT:    1262428  MISS:         28  HIT %:    99.9978  MISS %:  0.0022179   MPKI: 0.00056
LLC LOAD TRANSLATION ACCESS:       3275  HIT:          0  MISS:       3275  HIT %:          0  MISS %:        100   MPKI: 0.0655
LLC PREFETCH  REQUESTED:          0  ISSUED:          0  USEFUL:          0  USELESS:     330395
LLC USEFUL LOAD PREFETCHES:          0 PREFETCH ISSUED TO LOWER LEVEL:     330166  ACCURACY: 0
LLC TIMELY PREFETCHES:          0 LATE PREFETCHES: 0 DROPPED PREFETCHES: 0
LLC PREFETCHES SAME FILL-ORIGIN LEVEL: 0 DIFFERENT FILL-ORIGIN LEVEL: 0
LLC AVERAGE MISS LATENCY: 538.562 cycles
LLC RQ	ACCESS:    1349912	FORWARD:          0	MERGED:          0	TO_CACHE:    1349883
LLC WQ	ACCESS:    1262459	FORWARD:         29	MERGED:          0	TO_CACHE:    1262459
LLC PQ	ACCESS:     330166	FORWARD:          0	MERGED:          0	TO_CACHE:     330166

LLC Dense regions hint to LLC: 0

RAW hits: 677325
Loads Generated: 12282535
Loads sent to L1D: 11605206
Stores Generated: 8231583
Stores sent to L1D: 8231582
Major fault: 0 Minor fault: 32663
Allocated PAGES: 32663

stream: 
stream:times selected: 2437665
stream:pref_reqs: 13672675
stream:pref_reqs_filtered_out: 13459407
stream:pref_filled: 146087
stream:pref_useful: 146087
stream:pref_late: 18743
stream:misses: 26762
stream:misses_by_poll: 0

CS: 
CS:times selected: 428530
CS:pref_reqs: 1174585
CS:pref_reqs_filtered_out: 745668
CS:pref_filled: 276433
CS:pref_useful: 276429
CS:pref_late: 9787
CS:misses: 42889
CS:misses_by_poll: 802

CPLX: 
CPLX:times selected: 2007625
CPLX:pref_reqs: 3178016
CPLX:pref_reqs_filtered_out: 2734576
CPLX:pref_filled: 369742
CPLX:pref_useful: 369737
CPLX:pref_late: 13123
CPLX:misses: 80848
CPLX:misses_by_poll: 962

ISB: 
ISB:total access:8722757
ISB:times selected:217641
ISB:canary counter:0
ISB:pref_reqs: 19691
ISB:pref_reqs_filtered_out: 18728
ISB:pref_filled: 0
ISB:pref_useful: 0
ISB:pref_late: 0
ISB:misses: 7718
ISB:misses_by_poll: 0
ISB:Stream end: 217641
ISB:No Prediction: 8505116 97.5049
ISB:No translation: 136151742
ISB:Predictions: 875 0.0100312

NL_L1: 
NL:times selected: 960
NL:pref_reqs: 960
NL:pref_reqs_filtered_out: 590
NL:pref_filled: 80
NL:pref_useful: 80
NL:pref_late: 31
NL:misses: 125
NL:misses_by_poll: 0

Coverage: 71.2456
total selections: 5092421
total_filled: 295408
total_useful: 295405
total_late: 42897
total_polluted: 1764
total_misses_after_warmup: 157424
conflicts: 1056908

test: 0
ISB Prefetcher final stats
Prefetcher final stats
Training Unit Size: 54
Addr table size: 149562 149562
Triggers: 8722757
Structural address exists: 217641 2.49509
No Prediction: 8505116 97.5049
Prefetches issued: 875 0.0100312
Stream end: 217641
No translation: 136151742
%Stream divergence: 1194 0.0136883
Stream divergence -- new stream: 0
A: 0
B: 0
C: 2437667
D: 2437667
E: 2437667
F: 0
G: 0

DRAM Statistics
 CHANNEL 0
 RQ ROW_BUFFER_HIT:     113665  ROW_BUFFER_MISS:    1548069
 DBUS_CONGESTED:          0
 WQ ROW_BUFFER_HIT:     270676  ROW_BUFFER_MISS:     974089  FULL:          0

 AVG_CONGESTED_CYCLE: -
 All warmup complete: 2
Channel 0 Bank busy for read cycles: 0
Channel 0 Bank busy for write cycles: 0
Channel 0
Rank 0
0banks busy for read cycles: 11298
0banks busy for write cycles: 0
1banks busy for read cycles: 939260
1banks busy for write cycles: 122872
2banks busy for read cycles: 986054
2banks busy for write cycles: 122869
3banks busy for read cycles: 1676865
3banks busy for write cycles: 122863
4banks busy for read cycles: 3276984
4banks busy for write cycles: 122859
5banks busy for read cycles: 7244582
5banks busy for write cycles: 123037
6banks busy for read cycles: 10092617
6banks busy for write cycles: 123264
7banks busy for read cycles: 11978713
7banks busy for write cycles: 1371828
8banks busy for read cycles: 8786789
8banks busy for write cycles: 23952543

CPU 0 Branch Prediction Accuracy: 96.9529% MPKI: 0.42462 Average ROB Occupancy at Mispredict: 112.843
Branch types
NOT_BRANCH: 49303049 98.6061%
BRANCH_DIRECT_JUMP: 66227 0.132454%
BRANCH_INDIRECT: 0 0%
BRANCH_CONDITIONAL: 630544 1.26109%
BRANCH_DIRECT_CALL: 0 0%
BRANCH_INDIRECT_CALL: 0 0%
BRANCH_RETURN: 0 0%
BRANCH_OTHER: 0 0%

DRAM PAGES: 1048576
Allocated PAGES: 32663
