
*** ChampSim Multicore Out-of-Order Simulator ***

Warmup Instructions: 50000000
Simulation Instructions: 50000000
Number of CPUs: 1
LLC sets: 2048
LLC ways: 16
Off-chip DRAM Size: 4096 MB Channels: 1 Width: 64-bit Data Rate: 6400 MT/s
CPU 0 runs ./traces/SPEC-CPU2017/619.lbm_s-2676B.champsimtrace.xz
.xz
CPU 0 Bimodal branch predictor
BTB has LRU replacement policy
ITLB has LRU replacement policy
DTLB has LRU replacement policy
STLB has LRU replacement policy
L1I has LRU replacement policy
L1D has LRU replacement policy
L2C has LRU replacement policy
LLC has LRU replacement policy
Heartbeat CPU 0 instructions: 10000000 cycles: 2995762 heartbeat IPC: 3.33805 cumulative IPC: 3.33805 (Simulation time: 0 hr 0 min 50 sec) 
Heartbeat CPU 0 instructions: 20000000 cycles: 5986602 heartbeat IPC: 3.34354 cumulative IPC: 3.34079 (Simulation time: 0 hr 1 min 53 sec) 
Heartbeat CPU 0 instructions: 30000002 cycles: 8969658 heartbeat IPC: 3.35227 cumulative IPC: 3.34461 (Simulation time: 0 hr 3 min 0 sec) 
Heartbeat CPU 0 instructions: 40000000 cycles: 11937887 heartbeat IPC: 3.36901 cumulative IPC: 3.35068 (Simulation time: 0 hr 4 min 6 sec) 
Heartbeat CPU 0 instructions: 50000003 cycles: 14892558 heartbeat IPC: 3.38447 cumulative IPC: 3.35738 (Simulation time: 0 hr 5 min 12 sec) 

Warmup complete CPU 0 instructions: 50000003 cycles: 14892558 (Simulation time: 0 hr 5 min 12 sec) 

Heartbeat CPU 0 instructions: 60000000 cycles: 34057712 heartbeat IPC: 0.52178 cumulative IPC: 0.52178 (Simulation time: 0 hr 7 min 28 sec) 
Heartbeat CPU 0 instructions: 70000002 cycles: 52444969 heartbeat IPC: 0.543855 cumulative IPC: 0.532589 (Simulation time: 0 hr 9 min 34 sec) 
Heartbeat CPU 0 instructions: 80000000 cycles: 69574385 heartbeat IPC: 0.583791 cumulative IPC: 0.548628 (Simulation time: 0 hr 10 min 48 sec) 
Heartbeat CPU 0 instructions: 90000001 cycles: 86744920 heartbeat IPC: 0.582393 cumulative IPC: 0.556697 (Simulation time: 0 hr 11 min 58 sec) 
Heartbeat CPU 0 instructions: 100000000 cycles: 103141275 heartbeat IPC: 0.609892 cumulative IPC: 0.56658 (Simulation time: 0 hr 13 min 0 sec) 
Finished CPU 0 instructions: 50000003 cycles: 88248742 cumulative IPC: 0.56658 (Simulation time: 0 hr 13 min 0 sec) 

ChampSim completed all CPUs

Region of Interest Statistics

CPU 0 cumulative IPC: 0.56658 instructions: 50000003 cycles: 88248742
ITLB TOTAL     ACCESS:    6957639  HIT:    6957639  MISS:          0  HIT %:        100  MISS %:          0   MPKI: 0
ITLB LOAD TRANSLATION ACCESS:    6957639  HIT:    6957639  MISS:          0  HIT %:        100  MISS %:          0   MPKI: 0
ITLB PREFETCH  REQUESTED:          0  ISSUED:          0  USEFUL:          0  USELESS:          0
ITLB USEFUL LOAD PREFETCHES:          0 PREFETCH ISSUED TO LOWER LEVEL:          0  ACCURACY: -nan
ITLB TIMELY PREFETCHES:          0 LATE PREFETCHES: 0 DROPPED PREFETCHES: 0
ITLB PREFETCHES SAME FILL-ORIGIN LEVEL: 0 DIFFERENT FILL-ORIGIN LEVEL: 0
ITLB AVERAGE MISS LATENCY: -nan cycles
ITLB RQ	ACCESS:    9135080	FORWARD:          0	MERGED:    2177441	TO_CACHE:    6957639

DTLB TOTAL     ACCESS:    7903967  HIT:    7856195  MISS:      47772  HIT %:    99.3956  MISS %:   0.604405   MPKI: 0.95544
DTLB LOAD TRANSLATION ACCESS:    7903967  HIT:    7856195  MISS:      47772  HIT %:    99.3956  MISS %:   0.604405   MPKI: 0.95544
DTLB PREFETCH  REQUESTED:          0  ISSUED:          0  USEFUL:          0  USELESS:          0
DTLB USEFUL LOAD PREFETCHES:          0 PREFETCH ISSUED TO LOWER LEVEL:          0  ACCURACY: -nan
DTLB TIMELY PREFETCHES:          0 LATE PREFETCHES: 0 DROPPED PREFETCHES: 0
DTLB PREFETCHES SAME FILL-ORIGIN LEVEL: 0 DIFFERENT FILL-ORIGIN LEVEL: 0
DTLB AVERAGE MISS LATENCY: 89.55 cycles
DTLB RQ	ACCESS:   12348203	FORWARD:          0	MERGED:    4432651	TO_CACHE:    7915552

STLB TOTAL     ACCESS:      47772  HIT:      21850  MISS:      25922  HIT %:    45.7381  MISS %:    54.2619   MPKI: 0.51844
STLB LOAD TRANSLATION ACCESS:      47772  HIT:      21850  MISS:      25922  HIT %:    45.7381  MISS %:    54.2619   MPKI: 0.51844
STLB PREFETCH  REQUESTED:          0  ISSUED:          0  USEFUL:          0  USELESS:          0
STLB USEFUL LOAD PREFETCHES:          0 PREFETCH ISSUED TO LOWER LEVEL:          0  ACCURACY: -nan
STLB TIMELY PREFETCHES:          0 LATE PREFETCHES: 0 DROPPED PREFETCHES: 0
STLB PREFETCHES SAME FILL-ORIGIN LEVEL: 0 DIFFERENT FILL-ORIGIN LEVEL: 0
STLB AVERAGE MISS LATENCY: 147.98 cycles
STLB RQ	ACCESS:      47772	FORWARD:          0	MERGED:          0	TO_CACHE:      47772

STLB Hit, L1D data hit: 0
STLB Hit, L2C data hit: 0
STLB Hit, LLC data hit: 0
STLB Hit, LLC data miss: 0
STLB STLB hints to L2: 0
L1D TOTAL     ACCESS:   12181697  HIT:    9445206  MISS:    2736491  HIT %:     77.536  MISS %:     22.464   MPKI: 54.7298
L1D LOAD      ACCESS:    3970118  HIT:    3555486  MISS:     414632  HIT %:    89.5562  MISS %:    10.4438   MPKI: 8.29264
L1D RFO       ACCESS:    8211579  HIT:    5889720  MISS:    2321859  HIT %:    71.7246  MISS %:    28.2754   MPKI: 46.4372
L1D PREFETCH  REQUESTED:          0  ISSUED:          0  USEFUL:          0  USELESS:          0
L1D USEFUL LOAD PREFETCHES:          0 PREFETCH ISSUED TO LOWER LEVEL:          0  ACCURACY: -nan
L1D TIMELY PREFETCHES:          0 LATE PREFETCHES: 0 DROPPED PREFETCHES: 0
L1D PREFETCHES SAME FILL-ORIGIN LEVEL: 0 DIFFERENT FILL-ORIGIN LEVEL: 0
L1D AVERAGE MISS LATENCY: 259.025 cycles
L1D RQ	ACCESS:   11106550	FORWARD:          0	MERGED:    6708895	TO_CACHE:    4122150
L1D WQ	ACCESS:    8231582	FORWARD:     275505	MERGED:       5529	TO_CACHE:    8226053

L1D UNIQUE REGIONS ACCESSED: 0
L1D REGIONS CONFLICTS: 0
L1D Cross Page Prefetch Requests: 0
L1D Same Page Prefetch Requests: 0
L1D ROI Sum of L1D PQ occupancy: 0
L1D PREFETCHES PUSHED FROM L2C: 0
L1I TOTAL     ACCESS:    9135079  HIT:    9135079  MISS:          0  HIT %:        100  MISS %:          0   MPKI: 0
L1I LOAD      ACCESS:    9135079  HIT:    9135079  MISS:          0  HIT %:        100  MISS %:          0   MPKI: 0
L1I PREFETCH  REQUESTED:          0  ISSUED:          0  USEFUL:          0  USELESS:          0
L1I USEFUL LOAD PREFETCHES:          0 PREFETCH ISSUED TO LOWER LEVEL:          0  ACCURACY: -nan
L1I TIMELY PREFETCHES:          0 LATE PREFETCHES: 0 DROPPED PREFETCHES: 0
L1I PREFETCHES SAME FILL-ORIGIN LEVEL: 0 DIFFERENT FILL-ORIGIN LEVEL: 0
L1I AVERAGE MISS LATENCY: -nan cycles
L1I RQ	ACCESS:   13109005	FORWARD:          0	MERGED:    3973925	TO_CACHE:    9135080

BTB TOTAL     ACCESS:     696760  HIT:     696754  MISS:          6  HIT %:    99.9991  MISS %: 0.000861129   MPKI: 0.00012
BTB BRANCH_DIRECT_JUMP	ACCESS:      66227  HIT:      66226  MISS:          1
BTB BRANCH_INDIRECT	ACCESS:          0  HIT:          0  MISS:          0
BTB BRANCH_CONDITIONAL	ACCESS:     630533  HIT:     630528  MISS:          5
BTB BRANCH_DIRECT_CALL	ACCESS:          0  HIT:          0  MISS:          0
BTB BRANCH_INDIRECT_CALL	ACCESS:          0  HIT:          0  MISS:          0
BTB BRANCH_RETURN	ACCESS:          0  HIT:          0  MISS:          0
BTB BRANCH_OTHER ACCESS:          0  HIT:          0  MISS:          0

L2C TOTAL     ACCESS:    5084272  HIT:    3404269  MISS:    1680003  HIT %:    66.9569  MISS %:    33.0431   MPKI: 33.6001
L2C LOAD      ACCESS:     414632  HIT:          2  MISS:     414630  HIT %: 0.000482355  MISS %:    99.9995   MPKI: 8.2926
L2C DATA LOAD MPKI: 8.2926
L2C INSTRUCTION LOAD MPKI: 0
L2C RFO       ACCESS:    2321859  HIT:    1059791  MISS:    1262068  HIT %:    45.6441  MISS %:    54.3559   MPKI: 25.2414
L2C WRITEBACK ACCESS:    2321857  HIT:    2321827  MISS:         30  HIT %:    99.9987  MISS %: 0.00129207   MPKI: 0.0006
L2C LOAD TRANSLATION ACCESS:      25924  HIT:      22649  MISS:       3275  HIT %:    87.3669  MISS %:    12.6331   MPKI: 0.0655
L2C PREFETCH  REQUESTED:          0  ISSUED:          0  USEFUL:          0  USELESS:          0
L2C USEFUL LOAD PREFETCHES:          0 PREFETCH ISSUED TO LOWER LEVEL:          0  ACCURACY: -nan
L2C TIMELY PREFETCHES:          0 LATE PREFETCHES: 0 DROPPED PREFETCHES: 0
L2C PREFETCHES SAME FILL-ORIGIN LEVEL: 0 DIFFERENT FILL-ORIGIN LEVEL: 0
L2C AVERAGE MISS LATENCY: 396.646 cycles
L2C RQ	ACCESS:    2762416	FORWARD:          0	MERGED:          0	TO_CACHE:    2762416
L2C WQ	ACCESS:    2321857	FORWARD:          0	MERGED:          0	TO_CACHE:    2321857

L2C Instructions Evicting Data 0
L2C Translations Evicting Data 3259
L2C Data Evicting Data 1673440
L2C Instructions Evicting Instructions 0
L2C Translations Evicting Instructions 0
L2C Data Evicting Instructions 0
L2C Instructions Evicting Translations 0
L2C Translations Evicting Translations 16
L2C Data Evicting Translations 3258
L2C Dense regions hint from L2: 0
PSCL5 TOTAL     ACCESS:      25922  HIT:      25922  MISS:          0  HIT %:        100  MISS %:          0   MPKI: 0
PSCL5 LOAD TRANSLATION ACCESS:      25922  HIT:      25922  MISS:          0  HIT %:        100  MISS %:          0   MPKI: 0
PSCL5 PREFETCH  REQUESTED:          0  ISSUED:          0  USEFUL:          0  USELESS:          0
PSCL5 USEFUL LOAD PREFETCHES:          0 PREFETCH ISSUED TO LOWER LEVEL:          0  ACCURACY: -nan
PSCL5 TIMELY PREFETCHES:          0 LATE PREFETCHES: 0 DROPPED PREFETCHES: 0
PSCL5 PREFETCHES SAME FILL-ORIGIN LEVEL: 0 DIFFERENT FILL-ORIGIN LEVEL: 0

PSCL4 TOTAL     ACCESS:      25922  HIT:      25922  MISS:          0  HIT %:        100  MISS %:          0   MPKI: 0
PSCL4 LOAD TRANSLATION ACCESS:      25922  HIT:      25922  MISS:          0  HIT %:        100  MISS %:          0   MPKI: 0
PSCL4 PREFETCH  REQUESTED:          0  ISSUED:          0  USEFUL:          0  USELESS:          0
PSCL4 USEFUL LOAD PREFETCHES:          0 PREFETCH ISSUED TO LOWER LEVEL:          0  ACCURACY: -nan
PSCL4 TIMELY PREFETCHES:          0 LATE PREFETCHES: 0 DROPPED PREFETCHES: 0
PSCL4 PREFETCHES SAME FILL-ORIGIN LEVEL: 0 DIFFERENT FILL-ORIGIN LEVEL: 0

PSCL3 TOTAL     ACCESS:      25922  HIT:      25922  MISS:          0  HIT %:        100  MISS %:          0   MPKI: 0
PSCL3 LOAD TRANSLATION ACCESS:      25922  HIT:      25922  MISS:          0  HIT %:        100  MISS %:          0   MPKI: 0
PSCL3 PREFETCH  REQUESTED:          0  ISSUED:          0  USEFUL:          0  USELESS:          0
PSCL3 USEFUL LOAD PREFETCHES:          0 PREFETCH ISSUED TO LOWER LEVEL:          0  ACCURACY: -nan
PSCL3 TIMELY PREFETCHES:          0 LATE PREFETCHES: 0 DROPPED PREFETCHES: 0
PSCL3 PREFETCHES SAME FILL-ORIGIN LEVEL: 0 DIFFERENT FILL-ORIGIN LEVEL: 0

PSCL2 TOTAL     ACCESS:      25922  HIT:      25895  MISS:         27  HIT %:    99.8958  MISS %:   0.104159   MPKI: 0.00054
PSCL2 LOAD TRANSLATION ACCESS:      25922  HIT:      25895  MISS:         27  HIT %:    99.8958  MISS %:   0.104159   MPKI: 0.00054
PSCL2 PREFETCH  REQUESTED:          0  ISSUED:          0  USEFUL:          0  USELESS:          0
PSCL2 USEFUL LOAD PREFETCHES:          0 PREFETCH ISSUED TO LOWER LEVEL:          0  ACCURACY: -nan
PSCL2 TIMELY PREFETCHES:          0 LATE PREFETCHES: 0 DROPPED PREFETCHES: 0
PSCL2 PREFETCHES SAME FILL-ORIGIN LEVEL: 0 DIFFERENT FILL-ORIGIN LEVEL: 0

LLC TOTAL     ACCESS:    2942331  HIT:    1280564  MISS:    1661767  HIT %:    43.5221  MISS %:    56.4779   MPKI: 33.2353
LLC LOAD      ACCESS:     414630  HIT:          2  MISS:     414628  HIT %: 0.000482358  MISS %:    99.9995   MPKI: 8.29256
LLC RFO       ACCESS:    1262068  HIT:      18231  MISS:    1243837  HIT %:    1.44453  MISS %:    98.5555   MPKI: 24.8767
LLC WRITEBACK ACCESS:    1262358  HIT:    1262331  MISS:         27  HIT %:    99.9979  MISS %: 0.00213885   MPKI: 0.00054
LLC LOAD TRANSLATION ACCESS:       3275  HIT:          0  MISS:       3275  HIT %:          0  MISS %:        100   MPKI: 0.0655
LLC PREFETCH  REQUESTED:          0  ISSUED:          0  USEFUL:          0  USELESS:          0
LLC USEFUL LOAD PREFETCHES:          0 PREFETCH ISSUED TO LOWER LEVEL:          0  ACCURACY: -nan
LLC TIMELY PREFETCHES:          0 LATE PREFETCHES: 0 DROPPED PREFETCHES: 0
LLC PREFETCHES SAME FILL-ORIGIN LEVEL: 0 DIFFERENT FILL-ORIGIN LEVEL: 0
LLC AVERAGE MISS LATENCY: 370.358 cycles
LLC RQ	ACCESS:    1679974	FORWARD:          0	MERGED:          0	TO_CACHE:    1679974
LLC WQ	ACCESS:    1262358	FORWARD:          0	MERGED:          0	TO_CACHE:    1262358

LLC Dense regions hint to LLC: 0

RAW hits: 1175996
Loads Generated: 12282549
Loads sent to L1D: 11106550
Stores Generated: 8231588
Stores sent to L1D: 8231582
Major fault: 0 Minor fault: 32663
Allocated PAGES: 32663

DRAM Statistics
 CHANNEL 0
 RQ ROW_BUFFER_HIT:      80475  ROW_BUFFER_MISS:    1581265
 DBUS_CONGESTED:          0
 WQ ROW_BUFFER_HIT:     337153  ROW_BUFFER_MISS:     907621  FULL:          0

 AVG_CONGESTED_CYCLE: -
 All warmup complete: 2
Channel 0 Bank busy for read cycles: 0
Channel 0 Bank busy for write cycles: 0
Channel 0
Rank 0
0banks busy for read cycles: 122301
0banks busy for write cycles: 125
1banks busy for read cycles: 10531558
1banks busy for write cycles: 160470
2banks busy for read cycles: 3976763
2banks busy for write cycles: 159988
3banks busy for read cycles: 4142148
3banks busy for write cycles: 162395
4banks busy for read cycles: 13924343
4banks busy for write cycles: 161933
5banks busy for read cycles: 14025576
5banks busy for write cycles: 171490
6banks busy for read cycles: 5607372
6banks busy for write cycles: 183045
7banks busy for read cycles: 4664738
7banks busy for write cycles: 1461559
8banks busy for read cycles: 4147767
8banks busy for write cycles: 24645172

CPU 0 Branch Prediction Accuracy: 96.9529% MPKI: 0.42462 Average ROB Occupancy at Mispredict: 137.099
Branch types
NOT_BRANCH: 49303193 98.6064%
BRANCH_DIRECT_JUMP: 66227 0.132454%
BRANCH_INDIRECT: 0 0%
BRANCH_CONDITIONAL: 630544 1.26109%
BRANCH_DIRECT_CALL: 0 0%
BRANCH_INDIRECT_CALL: 0 0%
BRANCH_RETURN: 0 0%
BRANCH_OTHER: 0 0%

DRAM PAGES: 1048576
Allocated PAGES: 32663
