
*** ChampSim Multicore Out-of-Order Simulator ***

Warmup Instructions: 50000000
Simulation Instructions: 50000000
Number of CPUs: 1
LLC sets: 2048
LLC ways: 16
Off-chip DRAM Size: 4096 MB Channels: 1 Width: 64-bit Data Rate: 6400 MT/s
CPU 0 runs ./traces/SPEC-CPU2017/619.lbm_s-2676B.champsimtrace.xz
.xz
CPU 0 Bimodal branch predictor
BTB has LRU replacement policy
ITLB has LRU replacement policy
DTLB has LRU replacement policy
STLB has LRU replacement policy
L1I has LRU replacement policy
L1D has LRU replacement policy
L2C has LRU replacement policy
LLC has LRU replacement policy
Heartbeat CPU 0 instructions: 10000000 cycles: 2984298 heartbeat IPC: 3.35087 cumulative IPC: 3.35087 (Simulation time: 0 hr 1 min 13 sec) 
Heartbeat CPU 0 instructions: 20000000 cycles: 5963531 heartbeat IPC: 3.35657 cumulative IPC: 3.35372 (Simulation time: 0 hr 2 min 30 sec) 
Heartbeat CPU 0 instructions: 30000002 cycles: 8935242 heartbeat IPC: 3.36507 cumulative IPC: 3.35749 (Simulation time: 0 hr 3 min 45 sec) 
Heartbeat CPU 0 instructions: 40000000 cycles: 11893148 heartbeat IPC: 3.38077 cumulative IPC: 3.36328 (Simulation time: 0 hr 4 min 57 sec) 
Heartbeat CPU 0 instructions: 50000003 cycles: 14837428 heartbeat IPC: 3.39642 cumulative IPC: 3.36986 (Simulation time: 0 hr 6 min 7 sec) 

Warmup complete CPU 0 instructions: 50000003 cycles: 14837428 (Simulation time: 0 hr 6 min 7 sec) 

Heartbeat CPU 0 instructions: 60000000 cycles: 31725654 heartbeat IPC: 0.592128 cumulative IPC: 0.592128 (Simulation time: 0 hr 8 min 38 sec) 
Heartbeat CPU 0 instructions: 70000003 cycles: 47861707 heartbeat IPC: 0.61973 cumulative IPC: 0.605615 (Simulation time: 0 hr 10 min 56 sec) 
Heartbeat CPU 0 instructions: 80000000 cycles: 62765141 heartbeat IPC: 0.670986 cumulative IPC: 0.625943 (Simulation time: 0 hr 12 min 51 sec) 
Heartbeat CPU 0 instructions: 90000001 cycles: 77725967 heartbeat IPC: 0.668412 cumulative IPC: 0.636046 (Simulation time: 0 hr 14 min 17 sec) 
Heartbeat CPU 0 instructions: 100000000 cycles: 91853278 heartbeat IPC: 0.707849 cumulative IPC: 0.649217 (Simulation time: 0 hr 15 min 36 sec) 
Finished CPU 0 instructions: 50000003 cycles: 77015875 cumulative IPC: 0.649217 (Simulation time: 0 hr 15 min 36 sec) 

ChampSim completed all CPUs

Region of Interest Statistics

CPU 0 cumulative IPC: 0.649217 instructions: 50000003 cycles: 77015875
ITLB TOTAL     ACCESS:    6728318  HIT:    6728318  MISS:          0  HIT %:        100  MISS %:          0   MPKI: 0
ITLB LOAD TRANSLATION ACCESS:    6728318  HIT:    6728318  MISS:          0  HIT %:        100  MISS %:          0   MPKI: 0
ITLB PREFETCH  REQUESTED:          0  ISSUED:          0  USEFUL:          0  USELESS:          0
ITLB USEFUL LOAD PREFETCHES:          0 PREFETCH ISSUED TO LOWER LEVEL:          0  ACCURACY: -nan
ITLB TIMELY PREFETCHES:          0 LATE PREFETCHES: 0 DROPPED PREFETCHES: 0
ITLB PREFETCHES SAME FILL-ORIGIN LEVEL: 0 DIFFERENT FILL-ORIGIN LEVEL: 0
ITLB AVERAGE MISS LATENCY: -nan cycles
ITLB RQ	ACCESS:    8824140	FORWARD:          0	MERGED:    2095822	TO_CACHE:    6728318

DTLB TOTAL     ACCESS:    8441794  HIT:    8394022  MISS:      47772  HIT %:    99.4341  MISS %:   0.565899   MPKI: 0.95544
DTLB LOAD TRANSLATION ACCESS:    8441794  HIT:    8394022  MISS:      47772  HIT %:    99.4341  MISS %:   0.565899   MPKI: 0.95544
DTLB PREFETCH  REQUESTED:          0  ISSUED:          0  USEFUL:          0  USELESS:          0
DTLB USEFUL LOAD PREFETCHES:          0 PREFETCH ISSUED TO LOWER LEVEL:          0  ACCURACY: -nan
DTLB TIMELY PREFETCHES:          0 LATE PREFETCHES: 0 DROPPED PREFETCHES: 0
DTLB PREFETCHES SAME FILL-ORIGIN LEVEL: 0 DIFFERENT FILL-ORIGIN LEVEL: 0
DTLB AVERAGE MISS LATENCY: 99.1956 cycles
DTLB RQ	ACCESS:   12807286	FORWARD:          0	MERGED:    4351641	TO_CACHE:    8455645

STLB TOTAL     ACCESS:     152267  HIT:     126345  MISS:      25922  HIT %:     82.976  MISS %:     17.024   MPKI: 0.51844
STLB LOAD TRANSLATION ACCESS:      47772  HIT:      21850  MISS:      25922  HIT %:    45.7381  MISS %:    54.2619   MPKI: 0.51844
STLB TRANSLATION FROM L1D PREFETCHER ACCESS:     104495  HIT:     104495  MISS:          0  HIT %:        100  MISS %:          0   MPKI: 0
STLB PREFETCH  REQUESTED:          0  ISSUED:          0  USEFUL:          0  USELESS:          0
STLB USEFUL LOAD PREFETCHES:          0 PREFETCH ISSUED TO LOWER LEVEL:          0  ACCURACY: -nan
STLB TIMELY PREFETCHES:          0 LATE PREFETCHES: 0 DROPPED PREFETCHES: 0
STLB PREFETCHES SAME FILL-ORIGIN LEVEL: 0 DIFFERENT FILL-ORIGIN LEVEL: 0
STLB AVERAGE MISS LATENCY: 165.448 cycles
STLB RQ	ACCESS:     402922	FORWARD:          0	MERGED:     250655	TO_CACHE:     152267

STLB Hit, L1D data hit: 0
STLB Hit, L2C data hit: 0
STLB Hit, LLC data hit: 0
STLB Hit, LLC data miss: 0
STLB STLB hints to L2: 0
L1D TOTAL     ACCESS:   12970647  HIT:   10234157  MISS:    2736490  HIT %:    78.9024  MISS %:    21.0976   MPKI: 54.7298
L1D LOAD      ACCESS:    4656370  HIT:    4479599  MISS:     176771  HIT %:    96.2037  MISS %:    3.79633   MPKI: 3.53542
L1D RFO       ACCESS:    8067652  HIT:    5745793  MISS:    2321859  HIT %:    71.2201  MISS %:    28.7799   MPKI: 46.4372
L1D PREFETCH  ACCESS:     246625  HIT:       8765  MISS:     237860  HIT %:    3.55398  MISS %:     96.446   MPKI: 4.7572
AGUS PREFETCH L1 MISS: 0
L1D PREFETCH  REQUESTED:     736926  ISSUED:     710300  USEFUL:     237859  USELESS:          0
L1D USEFUL LOAD PREFETCHES:     237859 PREFETCH ISSUED TO LOWER LEVEL:     283727  ACCURACY: 83.8338
L1D TIMELY PREFETCHES:     237859 LATE PREFETCHES: 45867 DROPPED PREFETCHES: 0
L1D PREFETCHES SAME FILL-ORIGIN LEVEL: 283727 DIFFERENT FILL-ORIGIN LEVEL: 0
L1D AVERAGE MISS LATENCY: 313.365 cycles
L1D RQ	ACCESS:   11414709	FORWARD:          0	MERGED:    6189340	TO_CACHE:    4721156
L1D WQ	ACCESS:    8231582	FORWARD:     504213	MERGED:     145452	TO_CACHE:    8086130
L1D PQ	ACCESS:     355150	FORWARD:          0	MERGED:          0	TO_CACHE:     355150

L1D UNIQUE REGIONS ACCESSED: 0
L1D REGIONS CONFLICTS: 0
L1D Cross Page Prefetch Requests: 20
L1D Same Page Prefetch Requests: 816021
L1D ROI Sum of L1D PQ occupancy: 97923292
L1D PREFETCHES PUSHED FROM L2C: 0
L1I TOTAL     ACCESS:    8824140  HIT:    8824140  MISS:          0  HIT %:        100  MISS %:          0   MPKI: 0
L1I LOAD      ACCESS:    8824140  HIT:    8824140  MISS:          0  HIT %:        100  MISS %:          0   MPKI: 0
L1I PREFETCH  REQUESTED:          0  ISSUED:          0  USEFUL:          0  USELESS:          0
L1I USEFUL LOAD PREFETCHES:          0 PREFETCH ISSUED TO LOWER LEVEL:          0  ACCURACY: -nan
L1I TIMELY PREFETCHES:          0 LATE PREFETCHES: 0 DROPPED PREFETCHES: 0
L1I PREFETCHES SAME FILL-ORIGIN LEVEL: 0 DIFFERENT FILL-ORIGIN LEVEL: 0
L1I AVERAGE MISS LATENCY: -nan cycles
L1I RQ	ACCESS:   12316936	FORWARD:          0	MERGED:    3492796	TO_CACHE:    8824140

BTB TOTAL     ACCESS:     696760  HIT:     696754  MISS:          6  HIT %:    99.9991  MISS %: 0.000861129   MPKI: 0.00012
BTB BRANCH_DIRECT_JUMP	ACCESS:      66227  HIT:      66226  MISS:          1
BTB BRANCH_INDIRECT	ACCESS:          0  HIT:          0  MISS:          0
BTB BRANCH_CONDITIONAL	ACCESS:     630533  HIT:     630528  MISS:          5
BTB BRANCH_DIRECT_CALL	ACCESS:          0  HIT:          0  MISS:          0
BTB BRANCH_INDIRECT_CALL	ACCESS:          0  HIT:          0  MISS:          0
BTB BRANCH_RETURN	ACCESS:          0  HIT:          0  MISS:          0
BTB BRANCH_OTHER ACCESS:          0  HIT:          0  MISS:          0

L2C TOTAL     ACCESS:    5084273  HIT:    3404258  MISS:    1680015  HIT %:    66.9566  MISS %:    33.0434   MPKI: 33.6003
L2C LOAD      ACCESS:     130904  HIT:          0  MISS:     130904  HIT %:          0  MISS %:        100   MPKI: 2.61808
L2C DATA LOAD MPKI: 2.61808
L2C INSTRUCTION LOAD MPKI: 0
L2C RFO       ACCESS:    2321859  HIT:    1059783  MISS:    1262076  HIT %:    45.6437  MISS %:    54.3563   MPKI: 25.2415
L2C PREFETCH  ACCESS:     283727  HIT:          0  MISS:     283727  HIT %:          0  MISS %:        100   MPKI: 5.67454
AGUS PREFETCH L1 MISS: 0
L2C DATA PREFETCH MPKI: 5.67454
L2C INSTRUCTION PREFETCH MPKI: 0
L2C WRITEBACK ACCESS:    2321859  HIT:    2321826  MISS:         33  HIT %:    99.9986  MISS %: 0.00142127   MPKI: 0.00066
L2C LOAD TRANSLATION ACCESS:      25924  HIT:      22649  MISS:       3275  HIT %:    87.3669  MISS %:    12.6331   MPKI: 0.0655
L2C PREFETCH  REQUESTED:          0  ISSUED:          0  USEFUL:          0  USELESS:     283837
L2C USEFUL LOAD PREFETCHES:          0 PREFETCH ISSUED TO LOWER LEVEL:     283727  ACCURACY: 0
L2C TIMELY PREFETCHES:          0 LATE PREFETCHES: 0 DROPPED PREFETCHES: 0
L2C PREFETCHES SAME FILL-ORIGIN LEVEL: 0 DIFFERENT FILL-ORIGIN LEVEL: 0
L2C AVERAGE MISS LATENCY: 485.722 cycles
L2C RQ	ACCESS:    2478691	FORWARD:          0	MERGED:          0	TO_CACHE:    2478691
L2C WQ	ACCESS:    2321859	FORWARD:          0	MERGED:          0	TO_CACHE:    2321859
L2C PQ	ACCESS:     283727	FORWARD:          0	MERGED:          0	TO_CACHE:     283727

L2C Instructions Evicting Data 0
L2C Translations Evicting Data 3257
L2C Data Evicting Data 1673451
L2C Instructions Evicting Instructions 0
L2C Translations Evicting Instructions 0
L2C Data Evicting Instructions 0
L2C Instructions Evicting Translations 0
L2C Translations Evicting Translations 18
L2C Data Evicting Translations 3256
L2C Dense regions hint from L2: 0
PSCL5 TOTAL     ACCESS:      25922  HIT:      25922  MISS:          0  HIT %:        100  MISS %:          0   MPKI: 0
PSCL5 LOAD TRANSLATION ACCESS:      25922  HIT:      25922  MISS:          0  HIT %:        100  MISS %:          0   MPKI: 0
PSCL5 PREFETCH  REQUESTED:          0  ISSUED:          0  USEFUL:          0  USELESS:          0
PSCL5 USEFUL LOAD PREFETCHES:          0 PREFETCH ISSUED TO LOWER LEVEL:          0  ACCURACY: -nan
PSCL5 TIMELY PREFETCHES:          0 LATE PREFETCHES: 0 DROPPED PREFETCHES: 0
PSCL5 PREFETCHES SAME FILL-ORIGIN LEVEL: 0 DIFFERENT FILL-ORIGIN LEVEL: 0

PSCL4 TOTAL     ACCESS:      25922  HIT:      25922  MISS:          0  HIT %:        100  MISS %:          0   MPKI: 0
PSCL4 LOAD TRANSLATION ACCESS:      25922  HIT:      25922  MISS:          0  HIT %:        100  MISS %:          0   MPKI: 0
PSCL4 PREFETCH  REQUESTED:          0  ISSUED:          0  USEFUL:          0  USELESS:          0
PSCL4 USEFUL LOAD PREFETCHES:          0 PREFETCH ISSUED TO LOWER LEVEL:          0  ACCURACY: -nan
PSCL4 TIMELY PREFETCHES:          0 LATE PREFETCHES: 0 DROPPED PREFETCHES: 0
PSCL4 PREFETCHES SAME FILL-ORIGIN LEVEL: 0 DIFFERENT FILL-ORIGIN LEVEL: 0

PSCL3 TOTAL     ACCESS:      25922  HIT:      25922  MISS:          0  HIT %:        100  MISS %:          0   MPKI: 0
PSCL3 LOAD TRANSLATION ACCESS:      25922  HIT:      25922  MISS:          0  HIT %:        100  MISS %:          0   MPKI: 0
PSCL3 PREFETCH  REQUESTED:          0  ISSUED:          0  USEFUL:          0  USELESS:          0
PSCL3 USEFUL LOAD PREFETCHES:          0 PREFETCH ISSUED TO LOWER LEVEL:          0  ACCURACY: -nan
PSCL3 TIMELY PREFETCHES:          0 LATE PREFETCHES: 0 DROPPED PREFETCHES: 0
PSCL3 PREFETCHES SAME FILL-ORIGIN LEVEL: 0 DIFFERENT FILL-ORIGIN LEVEL: 0

PSCL2 TOTAL     ACCESS:      25922  HIT:      25895  MISS:         27  HIT %:    99.8958  MISS %:   0.104159   MPKI: 0.00054
PSCL2 LOAD TRANSLATION ACCESS:      25922  HIT:      25895  MISS:         27  HIT %:    99.8958  MISS %:   0.104159   MPKI: 0.00054
PSCL2 PREFETCH  REQUESTED:          0  ISSUED:          0  USEFUL:          0  USELESS:          0
PSCL2 USEFUL LOAD PREFETCHES:          0 PREFETCH ISSUED TO LOWER LEVEL:          0  ACCURACY: -nan
PSCL2 TIMELY PREFETCHES:          0 LATE PREFETCHES: 0 DROPPED PREFETCHES: 0
PSCL2 PREFETCHES SAME FILL-ORIGIN LEVEL: 0 DIFFERENT FILL-ORIGIN LEVEL: 0

LLC TOTAL     ACCESS:    2942350  HIT:    1280583  MISS:    1661767  HIT %:    43.5225  MISS %:    56.4775   MPKI: 33.2353
LLC LOAD      ACCESS:     130904  HIT:          2  MISS:     130902  HIT %: 0.00152784  MISS %:    99.9985   MPKI: 2.61804
LLC RFO       ACCESS:    1262075  HIT:      18241  MISS:    1243834  HIT %:    1.44532  MISS %:    98.5547   MPKI: 24.8767
LLC PREFETCH  ACCESS:     283727  HIT:          0  MISS:     283727  HIT %:          0  MISS %:        100   MPKI: 5.67454
AGUS PREFETCH L1 MISS: 0
LLC WRITEBACK ACCESS:    1262369  HIT:    1262340  MISS:         29  HIT %:    99.9977  MISS %: 0.00229727   MPKI: 0.00058
LLC LOAD TRANSLATION ACCESS:       3275  HIT:          0  MISS:       3275  HIT %:          0  MISS %:        100   MPKI: 0.0655
LLC PREFETCH  REQUESTED:          0  ISSUED:          0  USEFUL:          0  USELESS:     283706
LLC USEFUL LOAD PREFETCHES:          0 PREFETCH ISSUED TO LOWER LEVEL:     283727  ACCURACY: 0
LLC TIMELY PREFETCHES:          0 LATE PREFETCHES: 0 DROPPED PREFETCHES: 0
LLC PREFETCHES SAME FILL-ORIGIN LEVEL: 0 DIFFERENT FILL-ORIGIN LEVEL: 0
LLC AVERAGE MISS LATENCY: 460.139 cycles
LLC RQ	ACCESS:    1396259	FORWARD:          0	MERGED:          0	TO_CACHE:    1396258
LLC WQ	ACCESS:    1262370	FORWARD:          1	MERGED:          0	TO_CACHE:    1262370
LLC PQ	ACCESS:     283727	FORWARD:          0	MERGED:          0	TO_CACHE:     283727

LLC Dense regions hint to LLC: 0

RAW hits: 867822
Loads Generated: 12282535
Loads sent to L1D: 11414709
Stores Generated: 8231583
Stores sent to L1D: 8231582
Major fault: 0 Minor fault: 32663
Allocated PAGES: 32663

stream: 
stream:times selected: 346007
stream:pref_filled: 565324
stream:pref_useful: 565323
stream:pref_late: 76749
stream:misses: 62247
stream:misses_by_poll: 0

CS: 
CS:times selected: 20991
CS:pref_filled: 14063
CS:pref_useful: 14063
CS:pref_late: 1802
CS:misses: 19139
CS:misses_by_poll: 13

CPLX: 
CPLX:times selected: 324348
CPLX:pref_filled: 38950
CPLX:pref_useful: 38949
CPLX:pref_late: 1738
CPLX:misses: 309143
CPLX:misses_by_poll: 27

NL_L1: 
NL:times selected: 702
NL:pref_filled: 188
NL:pref_useful: 188
NL:pref_late: 47
NL:misses: 853
NL:misses_by_poll: 0

Coverage: 57.3666
total selections: 692048
total_filled: 237860
total_useful: 237859
total_late: 82893
total_polluted: 40
total_misses_after_warmup: 241554
conflicts: 5651

test: 88056
ISB Prefetcher final stats
Training Unit Size: 38
Addr table size: 321723 321723


Triggers: 346008
No Prediction: 321770 92.995
Stream end: 24238
No translation: 13205295 3816.47
Predictions: 82 0.0236989


Stream divergence: 1216 0.351437
Stream divergence -- new stream: 0

DRAM Statistics
 CHANNEL 0
 RQ ROW_BUFFER_HIT:      94159  ROW_BUFFER_MISS:    1567579
 DBUS_CONGESTED:          0
 WQ ROW_BUFFER_HIT:     264732  ROW_BUFFER_MISS:     980039  FULL:          0

 AVG_CONGESTED_CYCLE: -
 All warmup complete: 2
Channel 0 Bank busy for read cycles: 0
Channel 0 Bank busy for write cycles: 0
Channel 0
Rank 0
0banks busy for read cycles: 22975
0banks busy for write cycles: 0
1banks busy for read cycles: 1867906
1banks busy for write cycles: 126711
2banks busy for read cycles: 3114133
2banks busy for write cycles: 126709
3banks busy for read cycles: 5724421
3banks busy for write cycles: 126707
4banks busy for read cycles: 5475036
4banks busy for write cycles: 126702
5banks busy for read cycles: 8933781
5banks busy for write cycles: 126701
6banks busy for read cycles: 8193464
6banks busy for write cycles: 126939
7banks busy for read cycles: 9913422
7banks busy for write cycles: 1374687
8banks busy for read cycles: 7447467
8banks busy for write cycles: 24188115

CPU 0 Branch Prediction Accuracy: 96.9529% MPKI: 0.42462 Average ROB Occupancy at Mispredict: 109.92
Branch types
NOT_BRANCH: 49303049 98.6061%
BRANCH_DIRECT_JUMP: 66227 0.132454%
BRANCH_INDIRECT: 0 0%
BRANCH_CONDITIONAL: 630544 1.26109%
BRANCH_DIRECT_CALL: 0 0%
BRANCH_INDIRECT_CALL: 0 0%
BRANCH_RETURN: 0 0%
BRANCH_OTHER: 0 0%

DRAM PAGES: 1048576
Allocated PAGES: 32663
