
*** ChampSim Multicore Out-of-Order Simulator ***

Warmup Instructions: 50000000
Simulation Instructions: 50000000
Number of CPUs: 1
LLC sets: 2048
LLC ways: 16
Off-chip DRAM Size: 4096 MB Channels: 1 Width: 64-bit Data Rate: 6400 MT/s
CPU 0 runs ./traces/SPEC-CPU2017/619.lbm_s-2676B.champsimtrace.xz
.xz
CPU 0 Bimodal branch predictor
BTB has LRU replacement policy
ITLB has LRU replacement policy
DTLB has LRU replacement policy
STLB has LRU replacement policy
L1I has LRU replacement policy
L1D has LRU replacement policy
L2C has LRU replacement policy
LLC has LRU replacement policy
Heartbeat CPU 0 instructions: 10000000 cycles: 2981820 heartbeat IPC: 3.35366 cumulative IPC: 3.35366 (Simulation time: 0 hr 7 min 45 sec) 
Heartbeat CPU 0 instructions: 20000000 cycles: 5958599 heartbeat IPC: 3.35934 cumulative IPC: 3.35649 (Simulation time: 0 hr 15 min 36 sec) 
Heartbeat CPU 0 instructions: 30000002 cycles: 8927986 heartbeat IPC: 3.3677 cumulative IPC: 3.36022 (Simulation time: 0 hr 23 min 20 sec) 
Heartbeat CPU 0 instructions: 40000000 cycles: 11883737 heartbeat IPC: 3.38323 cumulative IPC: 3.36594 (Simulation time: 0 hr 31 min 24 sec) 
Heartbeat CPU 0 instructions: 50000003 cycles: 14826103 heartbeat IPC: 3.39863 cumulative IPC: 3.37243 (Simulation time: 0 hr 38 min 58 sec) 

Warmup complete CPU 0 instructions: 50000003 cycles: 14826103 (Simulation time: 0 hr 38 min 58 sec) 

Heartbeat CPU 0 instructions: 60000000 cycles: 30654538 heartbeat IPC: 0.631774 cumulative IPC: 0.631774 (Simulation time: 0 hr 45 min 4 sec) 
Heartbeat CPU 0 instructions: 70000001 cycles: 45697631 heartbeat IPC: 0.664757 cumulative IPC: 0.647846 (Simulation time: 0 hr 50 min 48 sec) 
Heartbeat CPU 0 instructions: 80000000 cycles: 59395672 heartbeat IPC: 0.730031 cumulative IPC: 0.673105 (Simulation time: 0 hr 55 min 57 sec) 
Heartbeat CPU 0 instructions: 90000001 cycles: 73112841 heartbeat IPC: 0.729013 cumulative IPC: 0.686262 (Simulation time: 1 hr 0 min 8 sec) 
Heartbeat CPU 0 instructions: 100000000 cycles: 85927637 heartbeat IPC: 0.780348 cumulative IPC: 0.70322 (Simulation time: 1 hr 3 min 39 sec) 
Finished CPU 0 instructions: 50000000 cycles: 71101549 cumulative IPC: 0.70322 (Simulation time: 1 hr 3 min 39 sec) 

ChampSim completed all CPUs

Region of Interest Statistics

CPU 0 cumulative IPC: 0.70322 instructions: 50000000 cycles: 71101549
ITLB TOTAL     ACCESS:    6711475  HIT:    6711475  MISS:          0  HIT %:        100  MISS %:          0   MPKI: 0
ITLB LOAD TRANSLATION ACCESS:    6711475  HIT:    6711475  MISS:          0  HIT %:        100  MISS %:          0   MPKI: 0
ITLB PREFETCH  REQUESTED:          0  ISSUED:          0  USEFUL:          0  USELESS:          0
ITLB USEFUL LOAD PREFETCHES:          0 PREFETCH ISSUED TO LOWER LEVEL:          0  ACCURACY: -nan
ITLB TIMELY PREFETCHES:          0 LATE PREFETCHES: 0 DROPPED PREFETCHES: 0
ITLB PREFETCHES SAME FILL-ORIGIN LEVEL: 0 DIFFERENT FILL-ORIGIN LEVEL: 0
ITLB AVERAGE MISS LATENCY: -nan cycles
ITLB RQ	ACCESS:    8770624	FORWARD:          0	MERGED:    2059148	TO_CACHE:    6711476

DTLB TOTAL     ACCESS:    7677691  HIT:    7629919  MISS:      47772  HIT %:    99.3778  MISS %:   0.622218   MPKI: 0.95544
DTLB LOAD TRANSLATION ACCESS:    7677691  HIT:    7629919  MISS:      47772  HIT %:    99.3778  MISS %:   0.622218   MPKI: 0.95544
DTLB PREFETCH  REQUESTED:          0  ISSUED:          0  USEFUL:          0  USELESS:          0
DTLB USEFUL LOAD PREFETCHES:          0 PREFETCH ISSUED TO LOWER LEVEL:          0  ACCURACY: -nan
DTLB TIMELY PREFETCHES:          0 LATE PREFETCHES: 0 DROPPED PREFETCHES: 0
DTLB PREFETCHES SAME FILL-ORIGIN LEVEL: 0 DIFFERENT FILL-ORIGIN LEVEL: 0
DTLB AVERAGE MISS LATENCY: 108.773 cycles
DTLB RQ	ACCESS:   11165966	FORWARD:          0	MERGED:    3473656	TO_CACHE:    7692310

STLB TOTAL     ACCESS:     297045  HIT:     271123  MISS:      25922  HIT %:    91.2734  MISS %:    8.72662   MPKI: 0.51844
STLB LOAD TRANSLATION ACCESS:      47772  HIT:      21850  MISS:      25922  HIT %:    45.7381  MISS %:    54.2619   MPKI: 0.51844
STLB TRANSLATION FROM L1D PREFETCHER ACCESS:     249273  HIT:     249273  MISS:          0  HIT %:        100  MISS %:          0   MPKI: 0
STLB PREFETCH  REQUESTED:          0  ISSUED:          0  USEFUL:          0  USELESS:          0
STLB USEFUL LOAD PREFETCHES:          0 PREFETCH ISSUED TO LOWER LEVEL:          0  ACCURACY: -nan
STLB TIMELY PREFETCHES:          0 LATE PREFETCHES: 0 DROPPED PREFETCHES: 0
STLB PREFETCHES SAME FILL-ORIGIN LEVEL: 0 DIFFERENT FILL-ORIGIN LEVEL: 0
STLB AVERAGE MISS LATENCY: 181.96 cycles
STLB RQ	ACCESS:     438974	FORWARD:          0	MERGED:     141929	TO_CACHE:     297045

STLB Hit, L1D data hit: 0
STLB Hit, L2C data hit: 0
STLB Hit, LLC data hit: 0
STLB Hit, LLC data miss: 0
STLB STLB hints to L2: 0
L1D TOTAL     ACCESS:   11431354  HIT:    8694884  MISS:    2736470  HIT %:    76.0617  MISS %:    23.9383   MPKI: 54.7294
L1D LOAD      ACCESS:    3928339  HIT:    3807317  MISS:     121022  HIT %:    96.9193  MISS %:    3.08074   MPKI: 2.42044
L1D RFO       ACCESS:    7173788  HIT:    4851949  MISS:    2321839  HIT %:    67.6344  MISS %:    32.3656   MPKI: 46.4368
L1D PREFETCH  ACCESS:     329227  HIT:      35618  MISS:     293609  HIT %:    10.8187  MISS %:    89.1813   MPKI: 5.87218
AGUS PREFETCH L1 MISS: 0
L1D PREFETCH  REQUESTED:     829394  ISSUED:     782404  USEFUL:     293608  USELESS:          0
L1D USEFUL LOAD PREFETCHES:     293608 PREFETCH ISSUED TO LOWER LEVEL:     329628  ACCURACY: 89.0725
L1D TIMELY PREFETCHES:     293608 LATE PREFETCHES: 36016 DROPPED PREFETCHES: 0
L1D PREFETCHES SAME FILL-ORIGIN LEVEL: 329628 DIFFERENT FILL-ORIGIN LEVEL: 0
L1D AVERAGE MISS LATENCY: 360.544 cycles
L1D RQ	ACCESS:   11601966	FORWARD:          0	MERGED:    5372763	TO_CACHE:    3966975
L1D WQ	ACCESS:    8231582	FORWARD:    2262228	MERGED:    1032591	TO_CACHE:    7198991
L1D PQ	ACCESS:     391202	FORWARD:          0	MERGED:          0	TO_CACHE:     391202

L1D UNIQUE REGIONS ACCESSED: 0
L1D REGIONS CONFLICTS: 0
L1D Cross Page Prefetch Requests: 199
L1D Same Page Prefetch Requests: 941584
L1D ROI Sum of L1D PQ occupancy: 146483612
L1D PREFETCHES PUSHED FROM L2C: 0
L1I TOTAL     ACCESS:    8770622  HIT:    8770622  MISS:          0  HIT %:        100  MISS %:          0   MPKI: 0
L1I LOAD      ACCESS:    8770622  HIT:    8770622  MISS:          0  HIT %:        100  MISS %:          0   MPKI: 0
L1I PREFETCH  REQUESTED:          0  ISSUED:          0  USEFUL:          0  USELESS:          0
L1I USEFUL LOAD PREFETCHES:          0 PREFETCH ISSUED TO LOWER LEVEL:          0  ACCURACY: -nan
L1I TIMELY PREFETCHES:          0 LATE PREFETCHES: 0 DROPPED PREFETCHES: 0
L1I PREFETCHES SAME FILL-ORIGIN LEVEL: 0 DIFFERENT FILL-ORIGIN LEVEL: 0
L1I AVERAGE MISS LATENCY: -nan cycles
L1I RQ	ACCESS:   12260631	FORWARD:          0	MERGED:    3490007	TO_CACHE:    8770624

BTB TOTAL     ACCESS:     696760  HIT:     696754  MISS:          6  HIT %:    99.9991  MISS %: 0.000861129   MPKI: 0.00012
BTB BRANCH_DIRECT_JUMP	ACCESS:      66227  HIT:      66226  MISS:          1
BTB BRANCH_INDIRECT	ACCESS:          0  HIT:          0  MISS:          0
BTB BRANCH_CONDITIONAL	ACCESS:     630533  HIT:     630528  MISS:          5
BTB BRANCH_DIRECT_CALL	ACCESS:          0  HIT:          0  MISS:          0
BTB BRANCH_INDIRECT_CALL	ACCESS:          0  HIT:          0  MISS:          0
BTB BRANCH_RETURN	ACCESS:          0  HIT:          0  MISS:          0
BTB BRANCH_OTHER ACCESS:          0  HIT:          0  MISS:          0

L2C TOTAL     ACCESS:    5084237  HIT:    3404145  MISS:    1680092  HIT %:    66.9549  MISS %:    33.0451   MPKI: 33.6018
L2C LOAD      ACCESS:      85006  HIT:          1  MISS:      85005  HIT %: 0.00117639  MISS %:    99.9988   MPKI: 1.7001
L2C DATA LOAD MPKI: 1.7001
L2C INSTRUCTION LOAD MPKI: 0
L2C RFO       ACCESS:    2321839  HIT:    1059683  MISS:    1262156  HIT %:    45.6398  MISS %:    54.3602   MPKI: 25.2431
L2C PREFETCH  ACCESS:     329625  HIT:          0  MISS:     329625  HIT %:          0  MISS %:        100   MPKI: 6.5925
AGUS PREFETCH L1 MISS: 0
L2C DATA PREFETCH MPKI: 6.5925
L2C INSTRUCTION PREFETCH MPKI: 0
L2C WRITEBACK ACCESS:    2321843  HIT:    2321812  MISS:         31  HIT %:    99.9987  MISS %: 0.00133515   MPKI: 0.00062
L2C LOAD TRANSLATION ACCESS:      25924  HIT:      22649  MISS:       3275  HIT %:    87.3669  MISS %:    12.6331   MPKI: 0.0655
L2C PREFETCH  REQUESTED:          0  ISSUED:          0  USEFUL:          0  USELESS:     329787
L2C USEFUL LOAD PREFETCHES:          0 PREFETCH ISSUED TO LOWER LEVEL:     329628  ACCURACY: 0
L2C TIMELY PREFETCHES:          0 LATE PREFETCHES: 0 DROPPED PREFETCHES: 0
L2C PREFETCHES SAME FILL-ORIGIN LEVEL: 0 DIFFERENT FILL-ORIGIN LEVEL: 0
L2C AVERAGE MISS LATENCY: 563.059 cycles
L2C RQ	ACCESS:    2432782	FORWARD:          0	MERGED:          0	TO_CACHE:    2432782
L2C WQ	ACCESS:    2321843	FORWARD:          0	MERGED:          0	TO_CACHE:    2321843
L2C PQ	ACCESS:     329628	FORWARD:          0	MERGED:          0	TO_CACHE:     329628

L2C Instructions Evicting Data 0
L2C Translations Evicting Data 3258
L2C Data Evicting Data 1673529
L2C Instructions Evicting Instructions 0
L2C Translations Evicting Instructions 0
L2C Data Evicting Instructions 0
L2C Instructions Evicting Translations 0
L2C Translations Evicting Translations 17
L2C Data Evicting Translations 3257
L2C Dense regions hint from L2: 0
PSCL5 TOTAL     ACCESS:      25922  HIT:      25922  MISS:          0  HIT %:        100  MISS %:          0   MPKI: 0
PSCL5 LOAD TRANSLATION ACCESS:      25922  HIT:      25922  MISS:          0  HIT %:        100  MISS %:          0   MPKI: 0
PSCL5 PREFETCH  REQUESTED:          0  ISSUED:          0  USEFUL:          0  USELESS:          0
PSCL5 USEFUL LOAD PREFETCHES:          0 PREFETCH ISSUED TO LOWER LEVEL:          0  ACCURACY: -nan
PSCL5 TIMELY PREFETCHES:          0 LATE PREFETCHES: 0 DROPPED PREFETCHES: 0
PSCL5 PREFETCHES SAME FILL-ORIGIN LEVEL: 0 DIFFERENT FILL-ORIGIN LEVEL: 0

PSCL4 TOTAL     ACCESS:      25922  HIT:      25922  MISS:          0  HIT %:        100  MISS %:          0   MPKI: 0
PSCL4 LOAD TRANSLATION ACCESS:      25922  HIT:      25922  MISS:          0  HIT %:        100  MISS %:          0   MPKI: 0
PSCL4 PREFETCH  REQUESTED:          0  ISSUED:          0  USEFUL:          0  USELESS:          0
PSCL4 USEFUL LOAD PREFETCHES:          0 PREFETCH ISSUED TO LOWER LEVEL:          0  ACCURACY: -nan
PSCL4 TIMELY PREFETCHES:          0 LATE PREFETCHES: 0 DROPPED PREFETCHES: 0
PSCL4 PREFETCHES SAME FILL-ORIGIN LEVEL: 0 DIFFERENT FILL-ORIGIN LEVEL: 0

PSCL3 TOTAL     ACCESS:      25922  HIT:      25922  MISS:          0  HIT %:        100  MISS %:          0   MPKI: 0
PSCL3 LOAD TRANSLATION ACCESS:      25922  HIT:      25922  MISS:          0  HIT %:        100  MISS %:          0   MPKI: 0
PSCL3 PREFETCH  REQUESTED:          0  ISSUED:          0  USEFUL:          0  USELESS:          0
PSCL3 USEFUL LOAD PREFETCHES:          0 PREFETCH ISSUED TO LOWER LEVEL:          0  ACCURACY: -nan
PSCL3 TIMELY PREFETCHES:          0 LATE PREFETCHES: 0 DROPPED PREFETCHES: 0
PSCL3 PREFETCHES SAME FILL-ORIGIN LEVEL: 0 DIFFERENT FILL-ORIGIN LEVEL: 0

PSCL2 TOTAL     ACCESS:      25922  HIT:      25895  MISS:         27  HIT %:    99.8958  MISS %:   0.104159   MPKI: 0.00054
PSCL2 LOAD TRANSLATION ACCESS:      25922  HIT:      25895  MISS:         27  HIT %:    99.8958  MISS %:   0.104159   MPKI: 0.00054
PSCL2 PREFETCH  REQUESTED:          0  ISSUED:          0  USEFUL:          0  USELESS:          0
PSCL2 USEFUL LOAD PREFETCHES:          0 PREFETCH ISSUED TO LOWER LEVEL:          0  ACCURACY: -nan
PSCL2 TIMELY PREFETCHES:          0 LATE PREFETCHES: 0 DROPPED PREFETCHES: 0
PSCL2 PREFETCHES SAME FILL-ORIGIN LEVEL: 0 DIFFERENT FILL-ORIGIN LEVEL: 0

LLC TOTAL     ACCESS:    2942488  HIT:    1280738  MISS:    1661750  HIT %:    43.5257  MISS %:    56.4743   MPKI: 33.235
LLC LOAD      ACCESS:      85005  HIT:          2  MISS:      85003  HIT %:  0.0023528  MISS %:    99.9976   MPKI: 1.70006
LLC RFO       ACCESS:    1262130  HIT:      18311  MISS:    1243819  HIT %:     1.4508  MISS %:    98.5492   MPKI: 24.8764
LLC PREFETCH  ACCESS:     329625  HIT:          0  MISS:     329625  HIT %:          0  MISS %:        100   MPKI: 6.5925
AGUS PREFETCH L1 MISS: 0
LLC WRITEBACK ACCESS:    1262453  HIT:    1262425  MISS:         28  HIT %:    99.9978  MISS %:  0.0022179   MPKI: 0.00056
LLC LOAD TRANSLATION ACCESS:       3275  HIT:          0  MISS:       3275  HIT %:          0  MISS %:        100   MPKI: 0.0655
LLC PREFETCH  REQUESTED:          0  ISSUED:          0  USEFUL:          0  USELESS:     329815
LLC USEFUL LOAD PREFETCHES:          0 PREFETCH ISSUED TO LOWER LEVEL:     329628  ACCURACY: 0
LLC TIMELY PREFETCHES:          0 LATE PREFETCHES: 0 DROPPED PREFETCHES: 0
LLC PREFETCHES SAME FILL-ORIGIN LEVEL: 0 DIFFERENT FILL-ORIGIN LEVEL: 0
LLC AVERAGE MISS LATENCY: 538.193 cycles
LLC RQ	ACCESS:    1350449	FORWARD:          0	MERGED:          0	TO_CACHE:    1350423
LLC WQ	ACCESS:    1262453	FORWARD:         26	MERGED:          0	TO_CACHE:    1262453
LLC PQ	ACCESS:     329628	FORWARD:          0	MERGED:          0	TO_CACHE:     329628

LLC Dense regions hint to LLC: 0

RAW hits: 680560
Loads Generated: 12282531
Loads sent to L1D: 11601966
Stores Generated: 8231568
Stores sent to L1D: 8231582
Major fault: 0 Minor fault: 32663
Allocated PAGES: 32663

stream: 
stream:times selected: 2433805
stream:pref_reqs: 13661434
stream:pref_reqs_filtered_out: 13425755
stream:pref_filled: 164924
stream:pref_useful: 164923
stream:pref_late: 20363
stream:misses: 28844
stream:misses_by_poll: 0

CS: 
CS:times selected: 408480
CS:pref_reqs: 1118682
CS:pref_reqs_filtered_out: 702033
CS:pref_filled: 269033
CS:pref_useful: 269031
CS:pref_late: 9766
CS:misses: 42832
CS:misses_by_poll: 820

CPLX: 
CPLX:times selected: 2023709
CPLX:pref_reqs: 2951682
CPLX:pref_reqs_filtered_out: 2504841
CPLX:pref_filled: 356083
CPLX:pref_useful: 356079
CPLX:pref_late: 13162
CPLX:misses: 87108
CPLX:misses_by_poll: 856

ISB: 
ISB:total access:5897022
ISB:times selected:145229
ISB:canary counter:0
ISB:pref_reqs: 13346
ISB:pref_reqs_filtered_out: 12793
ISB:pref_filled: 0
ISB:pref_useful: 0
ISB:pref_late: 0
ISB:misses: 160
ISB:misses_by_poll: 0
ISB:Stream end: 145229
ISB:No Prediction: 5751793 97.5372
ISB:No translation: 106218068 1801.22
ISB:Predictions: 487 0.00825841

NL_L1: 
NL:times selected: 1245
NL:pref_reqs: 1245
NL:pref_reqs_filtered_out: 805
NL:pref_filled: 106
NL:pref_useful: 106
NL:pref_late: 55
NL:misses: 172
NL:misses_by_poll: 0

Coverage: 70.812
total selections: 5012468
total_filled: 293609
total_useful: 293608
total_late: 44694
total_polluted: 1676
total_misses_after_warmup: 159657
conflicts: 1060283

test: 0
Prefetcher final stats
Training Unit Size: 39
Addr table size: 140801 140803
Stream divergence: 5720 0.0969981
Stream divergence -- new stream: 0
--------------------------Training unit table ------------------------

DRAM Statistics
 CHANNEL 0
 RQ ROW_BUFFER_HIT:     112928  ROW_BUFFER_MISS:    1548794
 DBUS_CONGESTED:          4
 WQ ROW_BUFFER_HIT:     271220  ROW_BUFFER_MISS:     973545  FULL:          0

 AVG_CONGESTED_CYCLE: 6
 All warmup complete: 2
Channel 0 Bank busy for read cycles: 0
Channel 0 Bank busy for write cycles: 0
Channel 0
Rank 0
0banks busy for read cycles: 11393
0banks busy for write cycles: 0
1banks busy for read cycles: 951561
1banks busy for write cycles: 122848
2banks busy for read cycles: 1010285
2banks busy for write cycles: 122844
3banks busy for read cycles: 1682840
3banks busy for write cycles: 122837
4banks busy for read cycles: 3299213
4banks busy for write cycles: 122838
5banks busy for read cycles: 7274047
5banks busy for write cycles: 122868
6banks busy for read cycles: 10090891
6banks busy for write cycles: 123247
7banks busy for read cycles: 11918927
7banks busy for write cycles: 1371261
8banks busy for read cycles: 8802642
8banks busy for write cycles: 23951008

CPU 0 Branch Prediction Accuracy: 96.9529% MPKI: 0.42462 Average ROB Occupancy at Mispredict: 112.56
Branch types
NOT_BRANCH: 49303028 98.6061%
BRANCH_DIRECT_JUMP: 66227 0.132454%
BRANCH_INDIRECT: 0 0%
BRANCH_CONDITIONAL: 630544 1.26109%
BRANCH_DIRECT_CALL: 0 0%
BRANCH_INDIRECT_CALL: 0 0%
BRANCH_RETURN: 0 0%
BRANCH_OTHER: 0 0%

DRAM PAGES: 1048576
Allocated PAGES: 32663
