
*** ChampSim Multicore Out-of-Order Simulator ***

Warmup Instructions: 50000000
Simulation Instructions: 50000000
Number of CPUs: 1
LLC sets: 2048
LLC ways: 16
Off-chip DRAM Size: 4096 MB Channels: 1 Width: 64-bit Data Rate: 6400 MT/s
CPU 0 runs ./traces/SPEC-CPU2017/619.lbm_s-2676B.champsimtrace.xz
.xz
CPU 0 Bimodal branch predictor
BTB has LRU replacement policy
ITLB has LRU replacement policy
DTLB has LRU replacement policy
STLB has LRU replacement policy
L1I has LRU replacement policy
L1D has LRU replacement policy
L2C has LRU replacement policy
LLC has LRU replacement policy
Heartbeat CPU 0 instructions: 10000000 cycles: 2981831 heartbeat IPC: 3.35364 cumulative IPC: 3.35364 (Simulation time: 0 hr 5 min 4 sec) 
Heartbeat CPU 0 instructions: 20000000 cycles: 5958617 heartbeat IPC: 3.35933 cumulative IPC: 3.35648 (Simulation time: 0 hr 10 min 14 sec) 
Heartbeat CPU 0 instructions: 30000002 cycles: 8927997 heartbeat IPC: 3.36771 cumulative IPC: 3.36022 (Simulation time: 0 hr 14 min 57 sec) 
Heartbeat CPU 0 instructions: 40000000 cycles: 11883809 heartbeat IPC: 3.38316 cumulative IPC: 3.36592 (Simulation time: 0 hr 19 min 31 sec) 
Heartbeat CPU 0 instructions: 50000003 cycles: 14826227 heartbeat IPC: 3.39857 cumulative IPC: 3.3724 (Simulation time: 0 hr 24 min 48 sec) 

Warmup complete CPU 0 instructions: 50000003 cycles: 14826227 (Simulation time: 0 hr 24 min 48 sec) 

Heartbeat CPU 0 instructions: 60000000 cycles: 30644548 heartbeat IPC: 0.632178 cumulative IPC: 0.632178 (Simulation time: 0 hr 29 min 6 sec) 
Heartbeat CPU 0 instructions: 70000003 cycles: 45671171 heartbeat IPC: 0.665486 cumulative IPC: 0.648404 (Simulation time: 0 hr 33 min 22 sec) 
Heartbeat CPU 0 instructions: 80000000 cycles: 59352600 heartbeat IPC: 0.730918 cumulative IPC: 0.673758 (Simulation time: 0 hr 37 min 15 sec) 
Heartbeat CPU 0 instructions: 90000001 cycles: 73075875 heartbeat IPC: 0.728689 cumulative IPC: 0.686699 (Simulation time: 0 hr 41 min 10 sec) 
Heartbeat CPU 0 instructions: 100000000 cycles: 85883471 heartbeat IPC: 0.780787 cumulative IPC: 0.703658 (Simulation time: 0 hr 45 min 2 sec) 
Finished CPU 0 instructions: 50000000 cycles: 71057259 cumulative IPC: 0.703658 (Simulation time: 0 hr 45 min 2 sec) 

ChampSim completed all CPUs

Region of Interest Statistics

CPU 0 cumulative IPC: 0.703658 instructions: 50000000 cycles: 71057259
ITLB TOTAL     ACCESS:    6712300  HIT:    6712300  MISS:          0  HIT %:        100  MISS %:          0   MPKI: 0
ITLB LOAD TRANSLATION ACCESS:    6712300  HIT:    6712300  MISS:          0  HIT %:        100  MISS %:          0   MPKI: 0
ITLB PREFETCH  REQUESTED:          0  ISSUED:          0  USEFUL:          0  USELESS:          0
ITLB USEFUL LOAD PREFETCHES:          0 PREFETCH ISSUED TO LOWER LEVEL:          0  ACCURACY: -nan
ITLB TIMELY PREFETCHES:          0 LATE PREFETCHES: 0 DROPPED PREFETCHES: 0
ITLB PREFETCHES SAME FILL-ORIGIN LEVEL: 0 DIFFERENT FILL-ORIGIN LEVEL: 0
ITLB AVERAGE MISS LATENCY: -nan cycles
ITLB RQ	ACCESS:    8770756	FORWARD:          0	MERGED:    2058456	TO_CACHE:    6712300

DTLB TOTAL     ACCESS:    7671320  HIT:    7623548  MISS:      47772  HIT %:    99.3773  MISS %:   0.622735   MPKI: 0.95544
DTLB LOAD TRANSLATION ACCESS:    7671320  HIT:    7623548  MISS:      47772  HIT %:    99.3773  MISS %:   0.622735   MPKI: 0.95544
DTLB PREFETCH  REQUESTED:          0  ISSUED:          0  USEFUL:          0  USELESS:          0
DTLB USEFUL LOAD PREFETCHES:          0 PREFETCH ISSUED TO LOWER LEVEL:          0  ACCURACY: -nan
DTLB TIMELY PREFETCHES:          0 LATE PREFETCHES: 0 DROPPED PREFETCHES: 0
DTLB PREFETCHES SAME FILL-ORIGIN LEVEL: 0 DIFFERENT FILL-ORIGIN LEVEL: 0
DTLB AVERAGE MISS LATENCY: 110.073 cycles
DTLB RQ	ACCESS:   11152827	FORWARD:          0	MERGED:    3466739	TO_CACHE:    7686088

STLB TOTAL     ACCESS:     294500  HIT:     268578  MISS:      25922  HIT %:     91.198  MISS %:    8.80204   MPKI: 0.51844
STLB LOAD TRANSLATION ACCESS:      47772  HIT:      21850  MISS:      25922  HIT %:    45.7381  MISS %:    54.2619   MPKI: 0.51844
STLB TRANSLATION FROM L1D PREFETCHER ACCESS:     246728  HIT:     246728  MISS:          0  HIT %:        100  MISS %:          0   MPKI: 0
STLB PREFETCH  REQUESTED:          0  ISSUED:          0  USEFUL:          0  USELESS:          0
STLB USEFUL LOAD PREFETCHES:          0 PREFETCH ISSUED TO LOWER LEVEL:          0  ACCURACY: -nan
STLB TIMELY PREFETCHES:          0 LATE PREFETCHES: 0 DROPPED PREFETCHES: 0
STLB PREFETCHES SAME FILL-ORIGIN LEVEL: 0 DIFFERENT FILL-ORIGIN LEVEL: 0
STLB AVERAGE MISS LATENCY: 184.375 cycles
STLB RQ	ACCESS:     432660	FORWARD:          0	MERGED:     138160	TO_CACHE:     294500

STLB Hit, L1D data hit: 0
STLB Hit, L2C data hit: 0
STLB Hit, LLC data hit: 0
STLB Hit, LLC data miss: 0
STLB STLB hints to L2: 0
L1D TOTAL     ACCESS:   11413998  HIT:    8677117  MISS:    2736881  HIT %:    76.0217  MISS %:    23.9783   MPKI: 54.7376
L1D LOAD      ACCESS:    3923909  HIT:    3803929  MISS:     119980  HIT %:    96.9423  MISS %:    3.05767   MPKI: 2.3996
L1D RFO       ACCESS:    7165938  HIT:    4844095  MISS:    2321843  HIT %:    67.5989  MISS %:    32.4011   MPKI: 46.4369
L1D PREFETCH  ACCESS:     324151  HIT:      29093  MISS:     295058  HIT %:    8.97514  MISS %:    91.0249   MPKI: 5.90116
AGUS PREFETCH L1 MISS: 0
L1D PREFETCH  REQUESTED:     817139  ISSUED:     769776  USEFUL:     294648  USELESS:        407
L1D USEFUL LOAD PREFETCHES:     294648 PREFETCH ISSUED TO LOWER LEVEL:     330244  ACCURACY: 89.2213
L1D TIMELY PREFETCHES:     294648 LATE PREFETCHES: 35182 DROPPED PREFETCHES: 0
L1D PREFETCHES SAME FILL-ORIGIN LEVEL: 330244 DIFFERENT FILL-ORIGIN LEVEL: 0
L1D AVERAGE MISS LATENCY: 360.28 cycles
L1D RQ	ACCESS:   11604418	FORWARD:          0	MERGED:    5369550	TO_CACHE:    3961871
L1D WQ	ACCESS:    8231582	FORWARD:    2272997	MERGED:    1040626	TO_CACHE:    7190956
L1D PQ	ACCESS:     384888	FORWARD:          0	MERGED:          0	TO_CACHE:     384888

L1D UNIQUE REGIONS ACCESSED: 0
L1D REGIONS CONFLICTS: 0
L1D Cross Page Prefetch Requests: 14978
L1D Same Page Prefetch Requests: 928192
L1D ROI Sum of L1D PQ occupancy: 146765678
L1D PREFETCHES PUSHED FROM L2C: 0
L1I TOTAL     ACCESS:    8770754  HIT:    8770754  MISS:          0  HIT %:        100  MISS %:          0   MPKI: 0
L1I LOAD      ACCESS:    8770754  HIT:    8770754  MISS:          0  HIT %:        100  MISS %:          0   MPKI: 0
L1I PREFETCH  REQUESTED:          0  ISSUED:          0  USEFUL:          0  USELESS:          0
L1I USEFUL LOAD PREFETCHES:          0 PREFETCH ISSUED TO LOWER LEVEL:          0  ACCURACY: -nan
L1I TIMELY PREFETCHES:          0 LATE PREFETCHES: 0 DROPPED PREFETCHES: 0
L1I PREFETCHES SAME FILL-ORIGIN LEVEL: 0 DIFFERENT FILL-ORIGIN LEVEL: 0
L1I AVERAGE MISS LATENCY: -nan cycles
L1I RQ	ACCESS:   12261128	FORWARD:          0	MERGED:    3490372	TO_CACHE:    8770756

BTB TOTAL     ACCESS:     696760  HIT:     696754  MISS:          6  HIT %:    99.9991  MISS %: 0.000861129   MPKI: 0.00012
BTB BRANCH_DIRECT_JUMP	ACCESS:      66227  HIT:      66226  MISS:          1
BTB BRANCH_INDIRECT	ACCESS:          0  HIT:          0  MISS:          0
BTB BRANCH_CONDITIONAL	ACCESS:     630533  HIT:     630528  MISS:          5
BTB BRANCH_DIRECT_CALL	ACCESS:          0  HIT:          0  MISS:          0
BTB BRANCH_INDIRECT_CALL	ACCESS:          0  HIT:          0  MISS:          0
BTB BRANCH_RETURN	ACCESS:          0  HIT:          0  MISS:          0
BTB BRANCH_OTHER ACCESS:          0  HIT:          0  MISS:          0

L2C TOTAL     ACCESS:    5084653  HIT:    3404541  MISS:    1680112  HIT %:    66.9572  MISS %:    33.0428   MPKI: 33.6022
L2C LOAD      ACCESS:      84798  HIT:          0  MISS:      84798  HIT %:          0  MISS %:        100   MPKI: 1.69596
L2C DATA LOAD MPKI: 1.69596
L2C INSTRUCTION LOAD MPKI: 0
L2C RFO       ACCESS:    2321843  HIT:    1059675  MISS:    1262168  HIT %:    45.6394  MISS %:    54.3606   MPKI: 25.2434
L2C PREFETCH  ACCESS:     330240  HIT:        402  MISS:     329838  HIT %:    0.12173  MISS %:    99.8783   MPKI: 6.59676
AGUS PREFETCH L1 MISS: 0
L2C DATA PREFETCH MPKI: 6.59676
L2C INSTRUCTION PREFETCH MPKI: 0
L2C WRITEBACK ACCESS:    2321848  HIT:    2321815  MISS:         33  HIT %:    99.9986  MISS %: 0.00142128   MPKI: 0.00066
L2C LOAD TRANSLATION ACCESS:      25924  HIT:      22649  MISS:       3275  HIT %:    87.3669  MISS %:    12.6331   MPKI: 0.0655
L2C PREFETCH  REQUESTED:          0  ISSUED:          0  USEFUL:          0  USELESS:     330041
L2C USEFUL LOAD PREFETCHES:          0 PREFETCH ISSUED TO LOWER LEVEL:     329842  ACCURACY: 0
L2C TIMELY PREFETCHES:          0 LATE PREFETCHES: 0 DROPPED PREFETCHES: 0
L2C PREFETCHES SAME FILL-ORIGIN LEVEL: 0 DIFFERENT FILL-ORIGIN LEVEL: 0
L2C AVERAGE MISS LATENCY: 562.759 cycles
L2C RQ	ACCESS:    2432577	FORWARD:          0	MERGED:          0	TO_CACHE:    2432577
L2C WQ	ACCESS:    2321848	FORWARD:          0	MERGED:          0	TO_CACHE:    2321848
L2C PQ	ACCESS:     330244	FORWARD:          0	MERGED:          0	TO_CACHE:     330244

L2C Instructions Evicting Data 0
L2C Translations Evicting Data 3259
L2C Data Evicting Data 1673546
L2C Instructions Evicting Instructions 0
L2C Translations Evicting Instructions 0
L2C Data Evicting Instructions 0
L2C Instructions Evicting Translations 0
L2C Translations Evicting Translations 16
L2C Data Evicting Translations 3258
L2C Dense regions hint from L2: 0
PSCL5 TOTAL     ACCESS:      25922  HIT:      25922  MISS:          0  HIT %:        100  MISS %:          0   MPKI: 0
PSCL5 LOAD TRANSLATION ACCESS:      25922  HIT:      25922  MISS:          0  HIT %:        100  MISS %:          0   MPKI: 0
PSCL5 PREFETCH  REQUESTED:          0  ISSUED:          0  USEFUL:          0  USELESS:          0
PSCL5 USEFUL LOAD PREFETCHES:          0 PREFETCH ISSUED TO LOWER LEVEL:          0  ACCURACY: -nan
PSCL5 TIMELY PREFETCHES:          0 LATE PREFETCHES: 0 DROPPED PREFETCHES: 0
PSCL5 PREFETCHES SAME FILL-ORIGIN LEVEL: 0 DIFFERENT FILL-ORIGIN LEVEL: 0

PSCL4 TOTAL     ACCESS:      25922  HIT:      25922  MISS:          0  HIT %:        100  MISS %:          0   MPKI: 0
PSCL4 LOAD TRANSLATION ACCESS:      25922  HIT:      25922  MISS:          0  HIT %:        100  MISS %:          0   MPKI: 0
PSCL4 PREFETCH  REQUESTED:          0  ISSUED:          0  USEFUL:          0  USELESS:          0
PSCL4 USEFUL LOAD PREFETCHES:          0 PREFETCH ISSUED TO LOWER LEVEL:          0  ACCURACY: -nan
PSCL4 TIMELY PREFETCHES:          0 LATE PREFETCHES: 0 DROPPED PREFETCHES: 0
PSCL4 PREFETCHES SAME FILL-ORIGIN LEVEL: 0 DIFFERENT FILL-ORIGIN LEVEL: 0

PSCL3 TOTAL     ACCESS:      25922  HIT:      25922  MISS:          0  HIT %:        100  MISS %:          0   MPKI: 0
PSCL3 LOAD TRANSLATION ACCESS:      25922  HIT:      25922  MISS:          0  HIT %:        100  MISS %:          0   MPKI: 0
PSCL3 PREFETCH  REQUESTED:          0  ISSUED:          0  USEFUL:          0  USELESS:          0
PSCL3 USEFUL LOAD PREFETCHES:          0 PREFETCH ISSUED TO LOWER LEVEL:          0  ACCURACY: -nan
PSCL3 TIMELY PREFETCHES:          0 LATE PREFETCHES: 0 DROPPED PREFETCHES: 0
PSCL3 PREFETCHES SAME FILL-ORIGIN LEVEL: 0 DIFFERENT FILL-ORIGIN LEVEL: 0

PSCL2 TOTAL     ACCESS:      25922  HIT:      25895  MISS:         27  HIT %:    99.8958  MISS %:   0.104159   MPKI: 0.00054
PSCL2 LOAD TRANSLATION ACCESS:      25922  HIT:      25895  MISS:         27  HIT %:    99.8958  MISS %:   0.104159   MPKI: 0.00054
PSCL2 PREFETCH  REQUESTED:          0  ISSUED:          0  USEFUL:          0  USELESS:          0
PSCL2 USEFUL LOAD PREFETCHES:          0 PREFETCH ISSUED TO LOWER LEVEL:          0  ACCURACY: -nan
PSCL2 TIMELY PREFETCHES:          0 LATE PREFETCHES: 0 DROPPED PREFETCHES: 0
PSCL2 PREFETCHES SAME FILL-ORIGIN LEVEL: 0 DIFFERENT FILL-ORIGIN LEVEL: 0

LLC TOTAL     ACCESS:    2942516  HIT:    1280762  MISS:    1661754  HIT %:    43.5261  MISS %:    56.4739   MPKI: 33.2351
LLC LOAD      ACCESS:      84798  HIT:          2  MISS:      84796  HIT %: 0.00235855  MISS %:    99.9976   MPKI: 1.69592
LLC RFO       ACCESS:    1262137  HIT:      18316  MISS:    1243821  HIT %:    1.45119  MISS %:    98.5488   MPKI: 24.8764
LLC PREFETCH  ACCESS:     329838  HIT:          5  MISS:     329833  HIT %:  0.0015159  MISS %:    99.9985   MPKI: 6.59666
AGUS PREFETCH L1 MISS: 0
LLC WRITEBACK ACCESS:    1262468  HIT:    1262439  MISS:         29  HIT %:    99.9977  MISS %: 0.00229709   MPKI: 0.00058
LLC LOAD TRANSLATION ACCESS:       3275  HIT:          0  MISS:       3275  HIT %:          0  MISS %:        100   MPKI: 0.0655
LLC PREFETCH  REQUESTED:          0  ISSUED:          0  USEFUL:          0  USELESS:     330012
LLC USEFUL LOAD PREFETCHES:          0 PREFETCH ISSUED TO LOWER LEVEL:     329837  ACCURACY: 0
LLC TIMELY PREFETCHES:          0 LATE PREFETCHES: 0 DROPPED PREFETCHES: 0
LLC PREFETCHES SAME FILL-ORIGIN LEVEL: 0 DIFFERENT FILL-ORIGIN LEVEL: 0
LLC AVERAGE MISS LATENCY: 537.904 cycles
LLC RQ	ACCESS:    1350253	FORWARD:          0	MERGED:          0	TO_CACHE:    1350222
LLC WQ	ACCESS:    1262468	FORWARD:         31	MERGED:          0	TO_CACHE:    1262468
LLC PQ	ACCESS:     329842	FORWARD:          0	MERGED:          0	TO_CACHE:     329842

LLC Dense regions hint to LLC: 0

RAW hits: 678108
Loads Generated: 12282531
Loads sent to L1D: 11604418
Stores Generated: 8231568
Stores sent to L1D: 8231582
Major fault: 0 Minor fault: 32663
Allocated PAGES: 32663

stream: 
stream:times selected: 2435269
stream:pref_reqs: 13662237
stream:pref_reqs_filtered_out: 13449227
stream:pref_filled: 146208
stream:pref_useful: 146208
stream:pref_late: 18980
stream:misses: 24594
stream:misses_by_poll: 0

CS: 
CS:times selected: 428122
CS:pref_reqs: 1173379
CS:pref_reqs_filtered_out: 744048
CS:pref_filled: 276789
CS:pref_useful: 276787
CS:pref_late: 9753
CS:misses: 42330
CS:misses_by_poll: 805

CPLX: 
CPLX:times selected: 2005656
CPLX:pref_reqs: 3173154
CPLX:pref_reqs_filtered_out: 2728741
CPLX:pref_filled: 368547
CPLX:pref_useful: 368540
CPLX:pref_late: 13350
CPLX:misses: 73050
CPLX:misses_by_poll: 883

ISB: 
ISB:total access:8736294
ISB:times selected:2098533
ISB:canary counter:0
ISB:pref_reqs: 330366
ISB:pref_reqs_filtered_out: 310700
ISB:pref_filled: 3795
ISB:pref_useful: 0
ISB:pref_late: 0
ISB:misses: 20707
ISB:misses_by_poll: 0
ISB:Stream end: 1805339
ISB:No Prediction: 6637761 75.9791
ISB:No translation: 1527200437
ISB:Predictions: 19456 0.222703

NL_L1: 
NL:times selected: 891
NL:pref_reqs: 891
NL:pref_reqs_filtered_out: 607
NL:pref_filled: 73
NL:pref_useful: 73
NL:pref_late: 40
NL:misses: 124
NL:misses_by_poll: 0

Coverage: 71.0632
total selections: 6968471
total_filled: 295058
total_useful: 294648
total_late: 43384
total_polluted: 1688
total_misses_after_warmup: 157941
conflicts: 1059346

test: 0
ISB Prefetcher final stats
Prefetcher final stats
Training Unit Size: 128
Addr table size: 911120 911137
Triggers: 8736294
Structural address exists: 2098533 24.0209
No Prediction: 6637761 75.9791
Prefetches issued: 19456 0.222703
Stream end: 1805339
No translation: 1527200437
%Stream divergence: 402318 4.60513
Stream divergence -- new stream: 0
A: 0
B: 0
C: 2435271
D: 2435271
E: 2435271
F: 0
G: 0

DRAM Statistics
 CHANNEL 0
 RQ ROW_BUFFER_HIT:     112969  ROW_BUFFER_MISS:    1548761
 DBUS_CONGESTED:          0
 WQ ROW_BUFFER_HIT:     271971  ROW_BUFFER_MISS:     972796  FULL:          0

 AVG_CONGESTED_CYCLE: -
 All warmup complete: 2
Channel 0 Bank busy for read cycles: 0
Channel 0 Bank busy for write cycles: 0
Channel 0
Rank 0
0banks busy for read cycles: 11461
0banks busy for write cycles: 0
1banks busy for read cycles: 952492
1banks busy for write cycles: 122775
2banks busy for read cycles: 994183
2banks busy for write cycles: 122774
3banks busy for read cycles: 1666918
3banks busy for write cycles: 122771
4banks busy for read cycles: 3328052
4banks busy for write cycles: 122768
5banks busy for read cycles: 7254124
5banks busy for write cycles: 122876
6banks busy for read cycles: 10070299
6banks busy for write cycles: 123314
7banks busy for read cycles: 11939873
7banks busy for write cycles: 1371247
8banks busy for read cycles: 8802742
8banks busy for write cycles: 23928591

CPU 0 Branch Prediction Accuracy: 96.9529% MPKI: 0.42462 Average ROB Occupancy at Mispredict: 113.367
Branch types
NOT_BRANCH: 49303028 98.6061%
BRANCH_DIRECT_JUMP: 66227 0.132454%
BRANCH_INDIRECT: 0 0%
BRANCH_CONDITIONAL: 630544 1.26109%
BRANCH_DIRECT_CALL: 0 0%
BRANCH_INDIRECT_CALL: 0 0%
BRANCH_RETURN: 0 0%
BRANCH_OTHER: 0 0%

DRAM PAGES: 1048576
Allocated PAGES: 32663
