
*** ChampSim Multicore Out-of-Order Simulator ***

Warmup Instructions: 50000000
Simulation Instructions: 50000000
Number of CPUs: 1
LLC sets: 2048
LLC ways: 16
Off-chip DRAM Size: 4096 MB Channels: 1 Width: 64-bit Data Rate: 6400 MT/s
CPU 0 runs ./traces/SPEC-CPU2017/623.xalancbmk_s-10B.champsimtrace.xz
.xz
CPU 0 Bimodal branch predictor
BTB has LRU replacement policy
ITLB has LRU replacement policy
DTLB has LRU replacement policy
STLB has LRU replacement policy
L1I has LRU replacement policy
L1D has LRU replacement policy
L2C has LRU replacement policy
LLC has LRU replacement policy
Heartbeat CPU 0 instructions: 10000001 cycles: 3171058 heartbeat IPC: 3.15352 cumulative IPC: 3.15352 (Simulation time: 0 hr 10 min 43 sec) 
Heartbeat CPU 0 instructions: 20000000 cycles: 6332157 heartbeat IPC: 3.16346 cumulative IPC: 3.15848 (Simulation time: 0 hr 21 min 33 sec) 
Heartbeat CPU 0 instructions: 30000001 cycles: 9511797 heartbeat IPC: 3.14501 cumulative IPC: 3.15398 (Simulation time: 0 hr 29 min 56 sec) 
Heartbeat CPU 0 instructions: 40000000 cycles: 12697191 heartbeat IPC: 3.13933 cumulative IPC: 3.1503 (Simulation time: 0 hr 38 min 1 sec) 
Heartbeat CPU 0 instructions: 50000000 cycles: 15908247 heartbeat IPC: 3.11424 cumulative IPC: 3.14302 (Simulation time: 0 hr 45 min 41 sec) 

Warmup complete CPU 0 instructions: 50000004 cycles: 15908248 (Simulation time: 0 hr 45 min 41 sec) 

Heartbeat CPU 0 instructions: 60000000 cycles: 43307921 heartbeat IPC: 0.364968 cumulative IPC: 0.364968 (Simulation time: 0 hr 49 min 4 sec) 
Heartbeat CPU 0 instructions: 70000000 cycles: 71891874 heartbeat IPC: 0.349847 cumulative IPC: 0.357247 (Simulation time: 0 hr 52 min 31 sec) 
Heartbeat CPU 0 instructions: 80000000 cycles: 100466796 heartbeat IPC: 0.349957 cumulative IPC: 0.354784 (Simulation time: 0 hr 56 min 6 sec) 
Heartbeat CPU 0 instructions: 90000000 cycles: 128331556 heartbeat IPC: 0.358876 cumulative IPC: 0.355798 (Simulation time: 0 hr 59 min 37 sec) 
Heartbeat CPU 0 instructions: 100000000 cycles: 157404965 heartbeat IPC: 0.343957 cumulative IPC: 0.353365 (Simulation time: 1 hr 3 min 5 sec) 
Finished CPU 0 instructions: 50000003 cycles: 141496751 cumulative IPC: 0.353365 (Simulation time: 1 hr 3 min 5 sec) 

ChampSim completed all CPUs

Region of Interest Statistics

CPU 0 cumulative IPC: 0.353365 instructions: 50000003 cycles: 141496751
ITLB TOTAL     ACCESS:    7900552  HIT:    7866643  MISS:      33909  HIT %:    99.5708  MISS %:   0.429198   MPKI: 0.67818
ITLB LOAD TRANSLATION ACCESS:    7900552  HIT:    7866643  MISS:      33909  HIT %:    99.5708  MISS %:   0.429198   MPKI: 0.67818
ITLB PREFETCH  REQUESTED:          0  ISSUED:          0  USEFUL:          0  USELESS:          0
ITLB USEFUL LOAD PREFETCHES:          0 PREFETCH ISSUED TO LOWER LEVEL:          0  ACCURACY: -nan
ITLB TIMELY PREFETCHES:          0 LATE PREFETCHES: 0 DROPPED PREFETCHES: 0
ITLB PREFETCHES SAME FILL-ORIGIN LEVEL: 0 DIFFERENT FILL-ORIGIN LEVEL: 0
ITLB AVERAGE MISS LATENCY: 18.1864 cycles
ITLB RQ	ACCESS:    9060585	FORWARD:          0	MERGED:    1150939	TO_CACHE:    7909646

DTLB TOTAL     ACCESS:   10298539  HIT:    9961220  MISS:     337319  HIT %:    96.7246  MISS %:    3.27541   MPKI: 6.74638
DTLB LOAD TRANSLATION ACCESS:   10298539  HIT:    9961220  MISS:     337319  HIT %:    96.7246  MISS %:    3.27541   MPKI: 6.74638
DTLB PREFETCH  REQUESTED:          0  ISSUED:          0  USEFUL:          0  USELESS:          0
DTLB USEFUL LOAD PREFETCHES:          0 PREFETCH ISSUED TO LOWER LEVEL:          0  ACCURACY: -nan
DTLB TIMELY PREFETCHES:          0 LATE PREFETCHES: 0 DROPPED PREFETCHES: 0
DTLB PREFETCHES SAME FILL-ORIGIN LEVEL: 0 DIFFERENT FILL-ORIGIN LEVEL: 0
DTLB AVERAGE MISS LATENCY: 12.779 cycles
DTLB RQ	ACCESS:   11390087	FORWARD:          0	MERGED:    1068299	TO_CACHE:   10321788

STLB TOTAL     ACCESS:    4218688  HIT:    3962950  MISS:     255738  HIT %:     93.938  MISS %:    6.06203   MPKI: 5.11476
STLB LOAD TRANSLATION ACCESS:     371228  HIT:     348814  MISS:      22414  HIT %:    93.9622  MISS %:     6.0378   MPKI: 0.44828
STLB TRANSLATION FROM L1D PREFETCHER ACCESS:    3847460  HIT:    3614136  MISS:     233324  HIT %:    93.9356  MISS %:    6.06436   MPKI: 4.66648
STLB PREFETCH  REQUESTED:          0  ISSUED:          0  USEFUL:     232817  USELESS:        512
STLB USEFUL LOAD PREFETCHES:     232817 PREFETCH ISSUED TO LOWER LEVEL:          0  ACCURACY: inf
STLB TIMELY PREFETCHES:     232817 LATE PREFETCHES: 39 DROPPED PREFETCHES: 0
STLB PREFETCHES SAME FILL-ORIGIN LEVEL: 0 DIFFERENT FILL-ORIGIN LEVEL: 0
STLB AVERAGE MISS LATENCY: 116.684 cycles
STLB RQ	ACCESS:    4958222	FORWARD:          0	MERGED:     738222	TO_CACHE:    4220000

STLB Hit, L1D data hit: 0
STLB Hit, L2C data hit: 0
STLB Hit, LLC data hit: 0
STLB Hit, LLC data miss: 0
STLB STLB hints to L2: 0
L1D TOTAL     ACCESS:   15797107  HIT:   13720465  MISS:    2076642  HIT %:    86.8543  MISS %:    13.1457   MPKI: 41.5328
L1D LOAD      ACCESS:    8977356  HIT:    8551606  MISS:     425750  HIT %:    95.2575  MISS %:    4.74249   MPKI: 8.515
L1D RFO       ACCESS:    2332858  HIT:    2308400  MISS:      24458  HIT %:    98.9516  MISS %:    1.04841   MPKI: 0.48916
L1D PREFETCH  ACCESS:    4486893  HIT:    2860459  MISS:    1626434  HIT %:    63.7514  MISS %:    36.2486   MPKI: 32.5287
AGUS PREFETCH L1 MISS: 0
L1D PREFETCH  REQUESTED:   12506718  ISSUED:    9175033  USEFUL:     938016  USELESS:     688403
L1D USEFUL LOAD PREFETCHES:     938016 PREFETCH ISSUED TO LOWER LEVEL:    1651452  ACCURACY: 56.7995
L1D TIMELY PREFETCHES:     938016 LATE PREFETCHES: 24495 DROPPED PREFETCHES: 0
L1D PREFETCHES SAME FILL-ORIGIN LEVEL: 1651452 DIFFERENT FILL-ORIGIN LEVEL: 0
L1D AVERAGE MISS LATENCY: 179.929 cycles
L1D RQ	ACCESS:   14679527	FORWARD:          0	MERGED:    5624754	TO_CACHE:    8995064
L1D WQ	ACCESS:    2425925	FORWARD:      59713	MERGED:      30902	TO_CACHE:    2395023
L1D PQ	ACCESS:    4588039	FORWARD:          0	MERGED:       1041	TO_CACHE:    4586994

L1D UNIQUE REGIONS ACCESSED: 0
L1D REGIONS CONFLICTS: 0
L1D Cross Page Prefetch Requests: 5770597
L1D Same Page Prefetch Requests: 3066675
L1D ROI Sum of L1D PQ occupancy: 160581729
L1D PREFETCHES PUSHED FROM L2C: 0
L1I TOTAL     ACCESS:    9009094  HIT:    8833065  MISS:     176029  HIT %:    98.0461  MISS %:     1.9539   MPKI: 3.52058
L1I LOAD      ACCESS:    9009094  HIT:    8833065  MISS:     176029  HIT %:    98.0461  MISS %:     1.9539   MPKI: 3.52058
L1I PREFETCH  REQUESTED:          0  ISSUED:          0  USEFUL:          0  USELESS:          0
L1I USEFUL LOAD PREFETCHES:          0 PREFETCH ISSUED TO LOWER LEVEL:          0  ACCURACY: -nan
L1I TIMELY PREFETCHES:          0 LATE PREFETCHES: 0 DROPPED PREFETCHES: 0
L1I PREFETCHES SAME FILL-ORIGIN LEVEL: 0 DIFFERENT FILL-ORIGIN LEVEL: 0
L1I AVERAGE MISS LATENCY: 40.2017 cycles
L1I RQ	ACCESS:   15172864	FORWARD:          0	MERGED:    6112279	TO_CACHE:    9060585

BTB TOTAL     ACCESS:    8240388  HIT:    8162326  MISS:      78062  HIT %:    99.0527  MISS %:    0.94731   MPKI: 1.56124
BTB BRANCH_DIRECT_JUMP	ACCESS:     125745  HIT:     125105  MISS:        640
BTB BRANCH_INDIRECT	ACCESS:      22046  HIT:       8847  MISS:      13199
BTB BRANCH_CONDITIONAL	ACCESS:    6916737  HIT:    6913889  MISS:       2848
BTB BRANCH_DIRECT_CALL	ACCESS:     323606  HIT:     322531  MISS:       1075
BTB BRANCH_INDIRECT_CALL	ACCESS:     264324  HIT:     261288  MISS:       3036
BTB BRANCH_RETURN	ACCESS:     587930  HIT:     530666  MISS:      57264
BTB BRANCH_OTHER ACCESS:          0  HIT:          0  MISS:          0

L2C TOTAL     ACCESS:    2559858  HIT:     607800  MISS:    1952058  HIT %:    23.7435  MISS %:    76.2565   MPKI: 39.0412
L2C LOAD      ACCESS:     577273  HIT:     211164  MISS:     366109  HIT %:    36.5796  MISS %:    63.4204   MPKI: 7.32218
L2C DATA LOAD MPKI: 6.5246
L2C INSTRUCTION LOAD MPKI: 0.79758
L2C RFO       ACCESS:      23924  HIT:      11223  MISS:      12701  HIT %:    46.9111  MISS %:    53.0889   MPKI: 0.25402
L2C PREFETCH  ACCESS:    1651443  HIT:     140412  MISS:    1511031  HIT %:    8.50238  MISS %:    91.4976   MPKI: 30.2206
AGUS PREFETCH L1 MISS: 0
L2C DATA PREFETCH MPKI: 30.2206
L2C INSTRUCTION PREFETCH MPKI: 0
L2C WRITEBACK ACCESS:      50238  HIT:      49997  MISS:        241  HIT %:    99.5203  MISS %:   0.479717   MPKI: 0.00482
L2C LOAD TRANSLATION ACCESS:      22679  HIT:      19798  MISS:       2881  HIT %:    87.2966  MISS %:    12.7034   MPKI: 0.05762
L2C TRANSLATION FROM L1D PREFETCHER ACCESS:     234301  HIT:     175206  MISS:      59095  HIT %:    74.7782  MISS %:    25.2218   MPKI: 1.1819
L2C PREFETCH  REQUESTED:          0  ISSUED:          0  USEFUL:      71527  USELESS:    1498398
L2C USEFUL LOAD PREFETCHES:      71527 PREFETCH ISSUED TO LOWER LEVEL:    1511031  ACCURACY: 4.73366
L2C TIMELY PREFETCHES:      71527 LATE PREFETCHES: 0 DROPPED PREFETCHES: 0
L2C PREFETCHES SAME FILL-ORIGIN LEVEL: 0 DIFFERENT FILL-ORIGIN LEVEL: 0
L2C AVERAGE MISS LATENCY: 184.225 cycles
L2C RQ	ACCESS:     858199	FORWARD:          0	MERGED:          0	TO_CACHE:     858177
L2C WQ	ACCESS:      50238	FORWARD:         31	MERGED:          0	TO_CACHE:      50238
L2C PQ	ACCESS:    1651452	FORWARD:          0	MERGED:          0	TO_CACHE:    1651443

L2C Instructions Evicting Data 37901
L2C Translations Evicting Data 59137
L2C Data Evicting Data 1752909
L2C Instructions Evicting Instructions 900
L2C Translations Evicting Instructions 934
L2C Data Evicting Instructions 38062
L2C Instructions Evicting Translations 1078
L2C Translations Evicting Translations 1905
L2C Data Evicting Translations 58991
L2C Dense regions hint from L2: 0
PSCL5 TOTAL     ACCESS:     255738  HIT:     255738  MISS:          0  HIT %:        100  MISS %:          0   MPKI: 0
PSCL5 LOAD TRANSLATION ACCESS:      22375  HIT:      22375  MISS:          0  HIT %:        100  MISS %:          0   MPKI: 0
PSCL5 TRANSLATION FROM L1D PREFETCHER ACCESS:     233363  HIT:     233363  MISS:          0  HIT %:        100  MISS %:          0   MPKI: 0
PSCL5 PREFETCH  REQUESTED:          0  ISSUED:          0  USEFUL:          0  USELESS:          0
PSCL5 USEFUL LOAD PREFETCHES:          0 PREFETCH ISSUED TO LOWER LEVEL:          0  ACCURACY: -nan
PSCL5 TIMELY PREFETCHES:          0 LATE PREFETCHES: 0 DROPPED PREFETCHES: 0
PSCL5 PREFETCHES SAME FILL-ORIGIN LEVEL: 0 DIFFERENT FILL-ORIGIN LEVEL: 0

PSCL4 TOTAL     ACCESS:     255738  HIT:     255738  MISS:          0  HIT %:        100  MISS %:          0   MPKI: 0
PSCL4 LOAD TRANSLATION ACCESS:      22375  HIT:      22375  MISS:          0  HIT %:        100  MISS %:          0   MPKI: 0
PSCL4 TRANSLATION FROM L1D PREFETCHER ACCESS:     233363  HIT:     233363  MISS:          0  HIT %:        100  MISS %:          0   MPKI: 0
PSCL4 PREFETCH  REQUESTED:          0  ISSUED:          0  USEFUL:          0  USELESS:          0
PSCL4 USEFUL LOAD PREFETCHES:          0 PREFETCH ISSUED TO LOWER LEVEL:          0  ACCURACY: -nan
PSCL4 TIMELY PREFETCHES:          0 LATE PREFETCHES: 0 DROPPED PREFETCHES: 0
PSCL4 PREFETCHES SAME FILL-ORIGIN LEVEL: 0 DIFFERENT FILL-ORIGIN LEVEL: 0

PSCL3 TOTAL     ACCESS:     255738  HIT:     255738  MISS:          0  HIT %:        100  MISS %:          0   MPKI: 0
PSCL3 LOAD TRANSLATION ACCESS:      22375  HIT:      22375  MISS:          0  HIT %:        100  MISS %:          0   MPKI: 0
PSCL3 TRANSLATION FROM L1D PREFETCHER ACCESS:     233363  HIT:     233363  MISS:          0  HIT %:        100  MISS %:          0   MPKI: 0
PSCL3 PREFETCH  REQUESTED:          0  ISSUED:          0  USEFUL:          0  USELESS:          0
PSCL3 USEFUL LOAD PREFETCHES:          0 PREFETCH ISSUED TO LOWER LEVEL:          0  ACCURACY: -nan
PSCL3 TIMELY PREFETCHES:          0 LATE PREFETCHES: 0 DROPPED PREFETCHES: 0
PSCL3 PREFETCHES SAME FILL-ORIGIN LEVEL: 0 DIFFERENT FILL-ORIGIN LEVEL: 0

PSCL2 TOTAL     ACCESS:     255738  HIT:     254496  MISS:       1242  HIT %:    99.5143  MISS %:   0.485653   MPKI: 0.02484
PSCL2 LOAD TRANSLATION ACCESS:      23313  HIT:      22071  MISS:       1242  HIT %:    94.6725  MISS %:     5.3275   MPKI: 0.02484
PSCL2 TRANSLATION FROM L1D PREFETCHER ACCESS:     232425  HIT:     232425  MISS:          0  HIT %:        100  MISS %:          0   MPKI: 0
PSCL2 PREFETCH  REQUESTED:          0  ISSUED:          0  USEFUL:          0  USELESS:          0
PSCL2 USEFUL LOAD PREFETCHES:          0 PREFETCH ISSUED TO LOWER LEVEL:          0  ACCURACY: -nan
PSCL2 TIMELY PREFETCHES:          0 LATE PREFETCHES: 0 DROPPED PREFETCHES: 0
PSCL2 PREFETCHES SAME FILL-ORIGIN LEVEL: 0 DIFFERENT FILL-ORIGIN LEVEL: 0

LLC TOTAL     ACCESS:    1975206  HIT:     153263  MISS:    1821943  HIT %:    7.75934  MISS %:    92.2407   MPKI: 36.4389
LLC LOAD      ACCESS:     366109  HIT:      40767  MISS:     325342  HIT %:    11.1352  MISS %:    88.8648   MPKI: 6.50684
LLC RFO       ACCESS:      12701  HIT:       1728  MISS:      10973  HIT %:    13.6052  MISS %:    86.3948   MPKI: 0.21946
LLC PREFETCH  ACCESS:    1511031  HIT:      84710  MISS:    1426321  HIT %:    5.60611  MISS %:    94.3939   MPKI: 28.5264
AGUS PREFETCH L1 MISS: 0
LLC WRITEBACK ACCESS:      23389  HIT:      23253  MISS:        136  HIT %:    99.4185  MISS %:    0.58147   MPKI: 0.00272
LLC LOAD TRANSLATION ACCESS:       2881  HIT:        612  MISS:       2269  HIT %:    21.2426  MISS %:    78.7574   MPKI: 0.04538
LLC TRANSLATION FROM L1D PREFETCHER ACCESS:      59095  HIT:       2193  MISS:      56902  HIT %:    3.71097  MISS %:     96.289   MPKI: 1.13804
LLC PREFETCH  REQUESTED:          0  ISSUED:          0  USEFUL:       9287  USELESS:    1473349
LLC USEFUL LOAD PREFETCHES:       9287 PREFETCH ISSUED TO LOWER LEVEL:    1426321  ACCURACY: 0.651116
LLC TIMELY PREFETCHES:       9287 LATE PREFETCHES: 0 DROPPED PREFETCHES: 0
LLC PREFETCHES SAME FILL-ORIGIN LEVEL: 0 DIFFERENT FILL-ORIGIN LEVEL: 0
LLC AVERAGE MISS LATENCY: 165.242 cycles
LLC RQ	ACCESS:     440786	FORWARD:          0	MERGED:          0	TO_CACHE:     440786
LLC WQ	ACCESS:      23389	FORWARD:          0	MERGED:          0	TO_CACHE:      23389
LLC PQ	ACCESS:    1511031	FORWARD:          0	MERGED:          0	TO_CACHE:    1511031

LLC Dense regions hint to LLC: 0

RAW hits: 62534
Loads Generated: 14742061
Loads sent to L1D: 14679527
Stores Generated: 2425922
Stores sent to L1D: 2425925
Major fault: 0 Minor fault: 11043
Allocated PAGES: 11043

stream: 
stream:times selected: 4106560
stream:pref_reqs: 3993276
stream:pref_reqs_filtered_out: 1267639
stream:pref_filled: 1104741
stream:pref_useful: 126155
stream:pref_late: 29184
stream:misses: 28407
stream:misses_by_poll: 0

CS: 
CS:times selected: 108335
CS:pref_reqs: 308326
CS:pref_reqs_filtered_out: 96853
CS:pref_filled: 88340
CS:pref_useful: 63003
CS:pref_late: 791
CS:misses: 3431
CS:misses_by_poll: 185

CPLX: 
CPLX:times selected: 3960524
CPLX:pref_reqs: 622160
CPLX:pref_reqs_filtered_out: 239847
CPLX:pref_filled: 211623
CPLX:pref_useful: 14761
CPLX:pref_late: 521
CPLX:misses: 79529
CPLX:misses_by_poll: 428

ISB: 
ISB:total access:15590057
ISB:times selected:10401914
ISB:canary counter:0
ISB:pref_reqs: 25805182
ISB:pref_reqs_filtered_out: 11598114
ISB:pref_filled: 1788345
ISB:pref_useful: 1681863
ISB:pref_late: 2706
ISB:misses: 656586
ISB:misses_by_poll: 12344
ISB:Stream end: 7909284
ISB:No Prediction: 5188143 33.2785
ISB:No translation: 3719999839
ISB:Predictions: 6230702 39.9659

NL_L1: 
NL:times selected: 15817
NL:pref_reqs: 15817
NL:pref_reqs_filtered_out: 2426
NL:pref_filled: 4377
NL:pref_useful: 647
NL:pref_late: 187
NL:misses: 3520
NL:misses_by_poll: 0

Coverage: 68.7813
total selections: 18593150
total_filled: 1626434
total_useful: 938016
total_late: 33970
total_polluted: 12957
total_misses_after_warmup: 443457
conflicts: 1941857

test: 0
ISB Prefetcher final stats
Prefetcher final stats
Training Unit Size: 945
Addr table size: 57183 57247
Triggers: 15590057
Structural address exists: 10401914 66.7215
No Prediction: 5188143 33.2785
Prefetches issued: 6230702 39.9659
Stream end: 7909284
No translation: 3719999839
%Stream divergence: 170000 1.09044
Stream divergence -- new stream: 0
A: 0
B: 0
C: 4106563
D: 4106563
E: 4106563
F: 0
G: 0

DRAM Statistics
 CHANNEL 0
 RQ ROW_BUFFER_HIT:     740146  ROW_BUFFER_MISS:    1081660
 DBUS_CONGESTED:        323
 WQ ROW_BUFFER_HIT:       2746  ROW_BUFFER_MISS:      15631  FULL:          0

 AVG_CONGESTED_CYCLE: 4
 All warmup complete: 2
Channel 0 Bank busy for read cycles: 0
Channel 0 Bank busy for write cycles: 0
Channel 0
Rank 0
0banks busy for read cycles: 61830602
0banks busy for write cycles: 10759
1banks busy for read cycles: 24040978
1banks busy for write cycles: 2239372
2banks busy for read cycles: 18254556
2banks busy for write cycles: 646573
3banks busy for read cycles: 13678852
3banks busy for write cycles: 229830
4banks busy for read cycles: 9892210
4banks busy for write cycles: 95506
5banks busy for read cycles: 6287007
5banks busy for write cycles: 42347
6banks busy for read cycles: 3076675
6banks busy for write cycles: 13749
7banks busy for read cycles: 985581
7banks busy for write cycles: 6886
8banks busy for read cycles: 164106
8banks busy for write cycles: 1163

CPU 0 Branch Prediction Accuracy: 94.9771% MPKI: 13.0224 Average ROB Occupancy at Mispredict: 42.4122
Branch types
NOT_BRANCH: 37037117 74.0742%
BRANCH_DIRECT_JUMP: 125745 0.25149%
BRANCH_INDIRECT: 22046 0.044092%
BRANCH_CONDITIONAL: 11639280 23.2786%
BRANCH_DIRECT_CALL: 323606 0.647212%
BRANCH_INDIRECT_CALL: 264324 0.528648%
BRANCH_RETURN: 587930 1.17586%
BRANCH_OTHER: 0 0%

DRAM PAGES: 1048576
Allocated PAGES: 11043
