
*** ChampSim Multicore Out-of-Order Simulator ***

Warmup Instructions: 50000000
Simulation Instructions: 50000000
Number of CPUs: 1
LLC sets: 2048
LLC ways: 16
Off-chip DRAM Size: 4096 MB Channels: 1 Width: 64-bit Data Rate: 6400 MT/s
CPU 0 runs ./traces/SPEC-CPU2017/625.x264_s-12B.champsimtrace.xz
.xz
CPU 0 Bimodal branch predictor
BTB has LRU replacement policy
ITLB has LRU replacement policy
DTLB has LRU replacement policy
STLB has LRU replacement policy
L1I has LRU replacement policy
L1D has LRU replacement policy
L2C has LRU replacement policy
LLC has LRU replacement policy
Heartbeat CPU 0 instructions: 10000001 cycles: 2777184 heartbeat IPC: 3.60077 cumulative IPC: 3.60077 (Simulation time: 0 hr 5 min 9 sec) 
Heartbeat CPU 0 instructions: 20000000 cycles: 5566094 heartbeat IPC: 3.58563 cumulative IPC: 3.59318 (Simulation time: 0 hr 9 min 26 sec) 
Heartbeat CPU 0 instructions: 30000001 cycles: 8351436 heartbeat IPC: 3.59022 cumulative IPC: 3.5922 (Simulation time: 0 hr 13 min 1 sec) 
Heartbeat CPU 0 instructions: 40000000 cycles: 11136909 heartbeat IPC: 3.59005 cumulative IPC: 3.59166 (Simulation time: 0 hr 16 min 34 sec) 
Heartbeat CPU 0 instructions: 50000001 cycles: 13924969 heartbeat IPC: 3.58672 cumulative IPC: 3.59067 (Simulation time: 0 hr 20 min 7 sec) 

Warmup complete CPU 0 instructions: 50000001 cycles: 13924969 (Simulation time: 0 hr 20 min 7 sec) 

Heartbeat CPU 0 instructions: 60000000 cycles: 25234846 heartbeat IPC: 0.884183 cumulative IPC: 0.884183 (Simulation time: 0 hr 21 min 3 sec) 
Heartbeat CPU 0 instructions: 70000001 cycles: 36788997 heartbeat IPC: 0.86549 cumulative IPC: 0.874736 (Simulation time: 0 hr 21 min 50 sec) 
Heartbeat CPU 0 instructions: 80000000 cycles: 48256425 heartbeat IPC: 0.872035 cumulative IPC: 0.873834 (Simulation time: 0 hr 22 min 44 sec) 
Heartbeat CPU 0 instructions: 90000002 cycles: 59752790 heartbeat IPC: 0.86984 cumulative IPC: 0.872832 (Simulation time: 0 hr 23 min 39 sec) 
Heartbeat CPU 0 instructions: 100000000 cycles: 71309471 heartbeat IPC: 0.8653 cumulative IPC: 0.871315 (Simulation time: 0 hr 24 min 33 sec) 
Finished CPU 0 instructions: 50000001 cycles: 57384510 cumulative IPC: 0.871315 (Simulation time: 0 hr 24 min 33 sec) 

ChampSim completed all CPUs

Region of Interest Statistics

CPU 0 cumulative IPC: 0.871315 instructions: 50000001 cycles: 57384510
ITLB TOTAL     ACCESS:    7170718  HIT:    7170717  MISS:          1  HIT %:        100  MISS %: 1.39456e-05   MPKI: 2e-05
ITLB LOAD TRANSLATION ACCESS:    7170718  HIT:    7170717  MISS:          1  HIT %:        100  MISS %: 1.39456e-05   MPKI: 2e-05
ITLB PREFETCH  REQUESTED:          0  ISSUED:          0  USEFUL:          0  USELESS:          0
ITLB USEFUL LOAD PREFETCHES:          0 PREFETCH ISSUED TO LOWER LEVEL:          0  ACCURACY: -nan
ITLB TIMELY PREFETCHES:          0 LATE PREFETCHES: 0 DROPPED PREFETCHES: 0
ITLB PREFETCHES SAME FILL-ORIGIN LEVEL: 0 DIFFERENT FILL-ORIGIN LEVEL: 0
ITLB AVERAGE MISS LATENCY: 150 cycles
ITLB RQ	ACCESS:    8838333	FORWARD:          0	MERGED:    1667615	TO_CACHE:    7170718

DTLB TOTAL     ACCESS:    6344413  HIT:    6333802  MISS:      10611  HIT %:    99.8328  MISS %:    0.16725   MPKI: 0.21222
DTLB LOAD TRANSLATION ACCESS:    6344413  HIT:    6333802  MISS:      10611  HIT %:    99.8328  MISS %:    0.16725   MPKI: 0.21222
DTLB PREFETCH  REQUESTED:          0  ISSUED:          0  USEFUL:          0  USELESS:          0
DTLB USEFUL LOAD PREFETCHES:          0 PREFETCH ISSUED TO LOWER LEVEL:          0  ACCURACY: -nan
DTLB TIMELY PREFETCHES:          0 LATE PREFETCHES: 0 DROPPED PREFETCHES: 0
DTLB PREFETCHES SAME FILL-ORIGIN LEVEL: 0 DIFFERENT FILL-ORIGIN LEVEL: 0
DTLB AVERAGE MISS LATENCY: 11.3366 cycles
DTLB RQ	ACCESS:    7655898	FORWARD:          0	MERGED:    1310063	TO_CACHE:    6345835

STLB TOTAL     ACCESS:     783104  HIT:     782951  MISS:        153  HIT %:    99.9805  MISS %:  0.0195376   MPKI: 0.00306
STLB LOAD TRANSLATION ACCESS:      10612  HIT:      10459  MISS:        153  HIT %:    98.5582  MISS %:    1.44176   MPKI: 0.00306
STLB TRANSLATION FROM L1D PREFETCHER ACCESS:     772492  HIT:     772492  MISS:          0  HIT %:        100  MISS %:          0   MPKI: 0
STLB PREFETCH  REQUESTED:          0  ISSUED:          0  USEFUL:          0  USELESS:          0
STLB USEFUL LOAD PREFETCHES:          0 PREFETCH ISSUED TO LOWER LEVEL:          0  ACCURACY: -nan
STLB TIMELY PREFETCHES:          0 LATE PREFETCHES: 0 DROPPED PREFETCHES: 0
STLB PREFETCHES SAME FILL-ORIGIN LEVEL: 0 DIFFERENT FILL-ORIGIN LEVEL: 0
STLB AVERAGE MISS LATENCY: 161.078 cycles
STLB RQ	ACCESS:    1397910	FORWARD:          0	MERGED:     614806	TO_CACHE:     783104

STLB Hit, L1D data hit: 0
STLB Hit, L2C data hit: 0
STLB Hit, LLC data hit: 0
STLB Hit, LLC data miss: 0
STLB STLB hints to L2: 0
L1D TOTAL     ACCESS:    9040733  HIT:    9000447  MISS:      40286  HIT %:    99.5544  MISS %:   0.445605   MPKI: 0.80572
L1D LOAD      ACCESS:    4505895  HIT:    4500531  MISS:       5364  HIT %:     99.881  MISS %:   0.119044   MPKI: 0.10728
L1D RFO       ACCESS:    3148452  HIT:    3147973  MISS:        479  HIT %:    99.9848  MISS %:  0.0152138   MPKI: 0.00958
L1D PREFETCH  ACCESS:    1386386  HIT:    1351943  MISS:      34443  HIT %:    97.5156  MISS %:    2.48437   MPKI: 0.68886
AGUS PREFETCH L1 MISS: 0
L1D PREFETCH  REQUESTED:    2811179  ISSUED:    2774738  USEFUL:      14150  USELESS:      20239
L1D USEFUL LOAD PREFETCHES:      14150 PREFETCH ISSUED TO LOWER LEVEL:      35143  ACCURACY: 40.2641
L1D TIMELY PREFETCHES:      14150 LATE PREFETCHES: 700 DROPPED PREFETCHES: 0
L1D PREFETCHES SAME FILL-ORIGIN LEVEL: 35143 DIFFERENT FILL-ORIGIN LEVEL: 0
L1D AVERAGE MISS LATENCY: 45.7063 cycles
L1D RQ	ACCESS:   12029893	FORWARD:          0	MERGED:    7503508	TO_CACHE:    4507371
L1D WQ	ACCESS:    3150756	FORWARD:      19156	MERGED:       2229	TO_CACHE:    3148527
L1D PQ	ACCESS:    1387440	FORWARD:          0	MERGED:          0	TO_CACHE:    1387298

L1D UNIQUE REGIONS ACCESSED: 0
L1D REGIONS CONFLICTS: 0
L1D Cross Page Prefetch Requests: 305156
L1D Same Page Prefetch Requests: 3710354
L1D ROI Sum of L1D PQ occupancy: 18942418
L1D PREFETCHES PUSHED FROM L2C: 0
L1I TOTAL     ACCESS:    8838323  HIT:    8838293  MISS:         30  HIT %:    99.9997  MISS %: 0.000339431   MPKI: 0.0006
L1I LOAD      ACCESS:    8838323  HIT:    8838293  MISS:         30  HIT %:    99.9997  MISS %: 0.000339431   MPKI: 0.0006
L1I PREFETCH  REQUESTED:          0  ISSUED:          0  USEFUL:          0  USELESS:          0
L1I USEFUL LOAD PREFETCHES:          0 PREFETCH ISSUED TO LOWER LEVEL:          0  ACCURACY: -nan
L1I TIMELY PREFETCHES:          0 LATE PREFETCHES: 0 DROPPED PREFETCHES: 0
L1I PREFETCHES SAME FILL-ORIGIN LEVEL: 0 DIFFERENT FILL-ORIGIN LEVEL: 0
L1I AVERAGE MISS LATENCY: 183 cycles
L1I RQ	ACCESS:   12158912	FORWARD:          0	MERGED:    3320579	TO_CACHE:    8838333

BTB TOTAL     ACCESS:    1864249  HIT:    1740734  MISS:     123515  HIT %:    93.3745  MISS %:    6.62546   MPKI: 2.4703
BTB BRANCH_DIRECT_JUMP	ACCESS:      36659  HIT:      36640  MISS:         19
BTB BRANCH_INDIRECT	ACCESS:       3046  HIT:       3045  MISS:          1
BTB BRANCH_CONDITIONAL	ACCESS:    1548181  HIT:    1548108  MISS:         73
BTB BRANCH_DIRECT_CALL	ACCESS:      71241  HIT:      71231  MISS:         10
BTB BRANCH_INDIRECT_CALL	ACCESS:      66940  HIT:      66909  MISS:         31
BTB BRANCH_RETURN	ACCESS:     138182  HIT:      14801  MISS:     123381
BTB BRANCH_OTHER ACCESS:          0  HIT:          0  MISS:          0

L2C TOTAL     ACCESS:      40978  HIT:      25258  MISS:      15720  HIT %:     61.638  MISS %:     38.362   MPKI: 0.3144
L2C LOAD      ACCESS:       4694  HIT:       1089  MISS:       3605  HIT %:    23.1998  MISS %:    76.8002   MPKI: 0.0721
L2C DATA LOAD MPKI: 0.0715
L2C INSTRUCTION LOAD MPKI: 0.0006
L2C RFO       ACCESS:        479  HIT:         23  MISS:        456  HIT %:    4.80167  MISS %:    95.1983   MPKI: 0.00912
L2C PREFETCH  ACCESS:      35143  HIT:      23526  MISS:      11617  HIT %:    66.9436  MISS %:    33.0564   MPKI: 0.23234
AGUS PREFETCH L1 MISS: 0
L2C DATA PREFETCH MPKI: 0.23234
L2C INSTRUCTION PREFETCH MPKI: 0
L2C WRITEBACK ACCESS:        509  HIT:        499  MISS:         10  HIT %:    98.0354  MISS %:    1.96464   MPKI: 0.0002
L2C LOAD TRANSLATION ACCESS:        153  HIT:        121  MISS:         32  HIT %:     79.085  MISS %:     20.915   MPKI: 0.00064
L2C PREFETCH  REQUESTED:          0  ISSUED:          0  USEFUL:        671  USELESS:      10300
L2C USEFUL LOAD PREFETCHES:        671 PREFETCH ISSUED TO LOWER LEVEL:      11617  ACCURACY: 5.77602
L2C TIMELY PREFETCHES:        671 LATE PREFETCHES: 0 DROPPED PREFETCHES: 0
L2C PREFETCHES SAME FILL-ORIGIN LEVEL: 0 DIFFERENT FILL-ORIGIN LEVEL: 0
L2C AVERAGE MISS LATENCY: 78.7064 cycles
L2C RQ	ACCESS:       5326	FORWARD:          0	MERGED:          0	TO_CACHE:       5326
L2C WQ	ACCESS:        509	FORWARD:          0	MERGED:          0	TO_CACHE:        509
L2C PQ	ACCESS:      35143	FORWARD:          0	MERGED:          0	TO_CACHE:      35143

L2C Instructions Evicting Data 30
L2C Translations Evicting Data 31
L2C Data Evicting Data 15590
L2C Instructions Evicting Instructions 0
L2C Translations Evicting Instructions 0
L2C Data Evicting Instructions 26
L2C Instructions Evicting Translations 0
L2C Translations Evicting Translations 1
L2C Data Evicting Translations 32
L2C Dense regions hint from L2: 0
PSCL5 TOTAL     ACCESS:        153  HIT:        153  MISS:          0  HIT %:        100  MISS %:          0   MPKI: 0
PSCL5 LOAD TRANSLATION ACCESS:        153  HIT:        153  MISS:          0  HIT %:        100  MISS %:          0   MPKI: 0
PSCL5 PREFETCH  REQUESTED:          0  ISSUED:          0  USEFUL:          0  USELESS:          0
PSCL5 USEFUL LOAD PREFETCHES:          0 PREFETCH ISSUED TO LOWER LEVEL:          0  ACCURACY: -nan
PSCL5 TIMELY PREFETCHES:          0 LATE PREFETCHES: 0 DROPPED PREFETCHES: 0
PSCL5 PREFETCHES SAME FILL-ORIGIN LEVEL: 0 DIFFERENT FILL-ORIGIN LEVEL: 0

PSCL4 TOTAL     ACCESS:        153  HIT:        153  MISS:          0  HIT %:        100  MISS %:          0   MPKI: 0
PSCL4 LOAD TRANSLATION ACCESS:        153  HIT:        153  MISS:          0  HIT %:        100  MISS %:          0   MPKI: 0
PSCL4 PREFETCH  REQUESTED:          0  ISSUED:          0  USEFUL:          0  USELESS:          0
PSCL4 USEFUL LOAD PREFETCHES:          0 PREFETCH ISSUED TO LOWER LEVEL:          0  ACCURACY: -nan
PSCL4 TIMELY PREFETCHES:          0 LATE PREFETCHES: 0 DROPPED PREFETCHES: 0
PSCL4 PREFETCHES SAME FILL-ORIGIN LEVEL: 0 DIFFERENT FILL-ORIGIN LEVEL: 0

PSCL3 TOTAL     ACCESS:        153  HIT:        153  MISS:          0  HIT %:        100  MISS %:          0   MPKI: 0
PSCL3 LOAD TRANSLATION ACCESS:        153  HIT:        153  MISS:          0  HIT %:        100  MISS %:          0   MPKI: 0
PSCL3 PREFETCH  REQUESTED:          0  ISSUED:          0  USEFUL:          0  USELESS:          0
PSCL3 USEFUL LOAD PREFETCHES:          0 PREFETCH ISSUED TO LOWER LEVEL:          0  ACCURACY: -nan
PSCL3 TIMELY PREFETCHES:          0 LATE PREFETCHES: 0 DROPPED PREFETCHES: 0
PSCL3 PREFETCHES SAME FILL-ORIGIN LEVEL: 0 DIFFERENT FILL-ORIGIN LEVEL: 0

PSCL2 TOTAL     ACCESS:        153  HIT:        152  MISS:          1  HIT %:    99.3464  MISS %:   0.653595   MPKI: 2e-05
PSCL2 LOAD TRANSLATION ACCESS:        153  HIT:        152  MISS:          1  HIT %:    99.3464  MISS %:   0.653595   MPKI: 2e-05
PSCL2 PREFETCH  REQUESTED:          0  ISSUED:          0  USEFUL:          0  USELESS:          0
PSCL2 USEFUL LOAD PREFETCHES:          0 PREFETCH ISSUED TO LOWER LEVEL:          0  ACCURACY: -nan
PSCL2 TIMELY PREFETCHES:          0 LATE PREFETCHES: 0 DROPPED PREFETCHES: 0
PSCL2 PREFETCHES SAME FILL-ORIGIN LEVEL: 0 DIFFERENT FILL-ORIGIN LEVEL: 0

LLC TOTAL     ACCESS:      16177  HIT:       8518  MISS:       7659  HIT %:     52.655  MISS %:     47.345   MPKI: 0.15318
LLC LOAD      ACCESS:       3605  HIT:       1706  MISS:       1899  HIT %:    47.3232  MISS %:    52.6768   MPKI: 0.03798
LLC RFO       ACCESS:        456  HIT:          1  MISS:        455  HIT %:   0.219298  MISS %:    99.7807   MPKI: 0.0091
LLC PREFETCH  ACCESS:      11617  HIT:       6339  MISS:       5278  HIT %:    54.5666  MISS %:    45.4334   MPKI: 0.10556
AGUS PREFETCH L1 MISS: 0
LLC WRITEBACK ACCESS:        467  HIT:        467  MISS:          0  HIT %:        100  MISS %:          0   MPKI: 0
LLC LOAD TRANSLATION ACCESS:         32  HIT:          5  MISS:         27  HIT %:     15.625  MISS %:     84.375   MPKI: 0.00054
LLC PREFETCH  REQUESTED:          0  ISSUED:          0  USEFUL:       1555  USELESS:          0
LLC USEFUL LOAD PREFETCHES:       1555 PREFETCH ISSUED TO LOWER LEVEL:       5278  ACCURACY: 29.4619
LLC TIMELY PREFETCHES:       1555 LATE PREFETCHES: 0 DROPPED PREFETCHES: 0
LLC PREFETCHES SAME FILL-ORIGIN LEVEL: 0 DIFFERENT FILL-ORIGIN LEVEL: 0
LLC AVERAGE MISS LATENCY: 99.7979 cycles
LLC RQ	ACCESS:       4093	FORWARD:          0	MERGED:          0	TO_CACHE:       4093
LLC WQ	ACCESS:        467	FORWARD:          0	MERGED:          0	TO_CACHE:        467
LLC PQ	ACCESS:      11617	FORWARD:          0	MERGED:          0	TO_CACHE:      11617

LLC Dense regions hint to LLC: 0

RAW hits: 111409
Loads Generated: 12141302
Loads sent to L1D: 12029893
Stores Generated: 3150752
Stores sent to L1D: 3150756
Major fault: 0 Minor fault: 474
Allocated PAGES: 474

stream: 
stream:times selected: 3821299
stream:pref_reqs: 7613648
stream:pref_reqs_filtered_out: 5444203
stream:pref_filled: 24205
stream:pref_useful: 9868
stream:pref_late: 32
stream:misses: 1155
stream:misses_by_poll: 0

CS: 
CS:times selected: 1457887
CS:pref_reqs: 3552289
CS:pref_reqs_filtered_out: 2099353
CS:pref_filled: 7324
CS:pref_useful: 4533
CS:pref_late: 470
CS:misses: 1710
CS:misses_by_poll: 6

CPLX: 
CPLX:times selected: 2362663
CPLX:pref_reqs: 4072834
CPLX:pref_reqs_filtered_out: 2923299
CPLX:pref_filled: 43341
CPLX:pref_useful: 17608
CPLX:pref_late: 158
CPLX:misses: 1398
CPLX:misses_by_poll: 28

ISB: 
ISB:total access:7381884
ISB:times selected:835049
ISB:canary counter:0
ISB:pref_reqs: 2127986
ISB:pref_reqs_filtered_out: 1521958
ISB:pref_filled: 5037
ISB:pref_useful: 2626
ISB:pref_late: 75
ISB:misses: 2557
ISB:misses_by_poll: 2
ISB:Stream end: 296911
ISB:No Prediction: 6546835 88.6879
ISB:No translation: 291355349
ISB:Predictions: 438604 5.94163

NL_L1: 
NL:times selected: 1217
NL:pref_reqs: 1217
NL:pref_reqs_filtered_out: 463
NL:pref_filled: 44
NL:pref_useful: 40
NL:pref_late: 0
NL:misses: 5
NL:misses_by_poll: 0

Coverage: 72.512
total selections: 8478115
total_filled: 34443
total_useful: 14150
total_late: 789
total_polluted: 36
total_misses_after_warmup: 6840
conflicts: 1322795

test: 0
ISB Prefetcher final stats
Prefetcher final stats
Training Unit Size: 146
Addr table size: 9685 9687
Triggers: 7381884
Structural address exists: 835049 11.3121
No Prediction: 6546835 88.6879
Prefetches issued: 438604 5.94163
Stream end: 296911
No translation: 291355349
%Stream divergence: 1226 0.0166082
Stream divergence -- new stream: 0
A: 0
B: 0
C: 3821302
D: 3821302
E: 3821302
F: 0
G: 0

DRAM Statistics
 CHANNEL 0
 RQ ROW_BUFFER_HIT:       5576  ROW_BUFFER_MISS:       2083
 DBUS_CONGESTED:          0
 WQ ROW_BUFFER_HIT:          0  ROW_BUFFER_MISS:          0  FULL:          0

 AVG_CONGESTED_CYCLE: -
 All warmup complete: 2
Channel 0 Bank busy for read cycles: 0
Channel 0 Bank busy for write cycles: 0
Channel 0
Rank 0
0banks busy for read cycles: 56970527
0banks busy for write cycles: 0
1banks busy for read cycles: 320569
1banks busy for write cycles: 0
2banks busy for read cycles: 56883
2banks busy for write cycles: 0
3banks busy for read cycles: 16145
3banks busy for write cycles: 0
4banks busy for read cycles: 8840
4banks busy for write cycles: 0
5banks busy for read cycles: 4010
5banks busy for write cycles: 0
6banks busy for read cycles: 2503
6banks busy for write cycles: 0
7banks busy for read cycles: 2213
7banks busy for write cycles: 0
8banks busy for read cycles: 2821
8banks busy for write cycles: 0

CPU 0 Branch Prediction Accuracy: 88.47% MPKI: 4.83304 Average ROB Occupancy at Mispredict: 35.7418
Branch types
NOT_BRANCH: 47903889 95.8078%
BRANCH_DIRECT_JUMP: 36659 0.073318%
BRANCH_INDIRECT: 3046 0.006092%
BRANCH_CONDITIONAL: 1779789 3.55958%
BRANCH_DIRECT_CALL: 71241 0.142482%
BRANCH_INDIRECT_CALL: 66940 0.13388%
BRANCH_RETURN: 138182 0.276364%
BRANCH_OTHER: 0 0%

DRAM PAGES: 1048576
Allocated PAGES: 474
