
*** ChampSim Multicore Out-of-Order Simulator ***

Warmup Instructions: 50000000
Simulation Instructions: 50000000
Number of CPUs: 1
LLC sets: 2048
LLC ways: 16
Off-chip DRAM Size: 4096 MB Channels: 1 Width: 64-bit Data Rate: 6400 MT/s
CPU 0 runs ./traces/SPEC-CPU2017/625.x264_s-12B.champsimtrace.xz
.xz
CPU 0 Bimodal branch predictor
BTB has LRU replacement policy
ITLB has LRU replacement policy
DTLB has LRU replacement policy
STLB has LRU replacement policy
L1I has LRU replacement policy
L1D has LRU replacement policy
L2C has LRU replacement policy
LLC has LRU replacement policy
Heartbeat CPU 0 instructions: 10000001 cycles: 2777173 heartbeat IPC: 3.60078 cumulative IPC: 3.60078 (Simulation time: 0 hr 8 min 16 sec) 
Heartbeat CPU 0 instructions: 20000000 cycles: 5566084 heartbeat IPC: 3.58563 cumulative IPC: 3.59319 (Simulation time: 0 hr 17 min 3 sec) 
Heartbeat CPU 0 instructions: 30000001 cycles: 8351421 heartbeat IPC: 3.59023 cumulative IPC: 3.5922 (Simulation time: 0 hr 25 min 37 sec) 
Heartbeat CPU 0 instructions: 40000000 cycles: 11136900 heartbeat IPC: 3.59005 cumulative IPC: 3.59166 (Simulation time: 0 hr 34 min 12 sec) 
Heartbeat CPU 0 instructions: 50000001 cycles: 13924965 heartbeat IPC: 3.58672 cumulative IPC: 3.59067 (Simulation time: 0 hr 42 min 39 sec) 

Warmup complete CPU 0 instructions: 50000001 cycles: 13924965 (Simulation time: 0 hr 42 min 39 sec) 

Heartbeat CPU 0 instructions: 60000000 cycles: 25233739 heartbeat IPC: 0.884269 cumulative IPC: 0.884269 (Simulation time: 0 hr 44 min 32 sec) 
Heartbeat CPU 0 instructions: 70000001 cycles: 36787321 heartbeat IPC: 0.865533 cumulative IPC: 0.874801 (Simulation time: 0 hr 46 min 24 sec) 
Heartbeat CPU 0 instructions: 80000000 cycles: 48255061 heartbeat IPC: 0.872011 cumulative IPC: 0.873869 (Simulation time: 0 hr 48 min 22 sec) 
Heartbeat CPU 0 instructions: 90000002 cycles: 59752692 heartbeat IPC: 0.869745 cumulative IPC: 0.872834 (Simulation time: 0 hr 50 min 20 sec) 
Heartbeat CPU 0 instructions: 100000000 cycles: 71311048 heartbeat IPC: 0.865175 cumulative IPC: 0.871291 (Simulation time: 0 hr 52 min 17 sec) 
Finished CPU 0 instructions: 50000001 cycles: 57386091 cumulative IPC: 0.871291 (Simulation time: 0 hr 52 min 17 sec) 

ChampSim completed all CPUs

Region of Interest Statistics

CPU 0 cumulative IPC: 0.871291 instructions: 50000001 cycles: 57386091
ITLB TOTAL     ACCESS:    7170737  HIT:    7170736  MISS:          1  HIT %:        100  MISS %: 1.39456e-05   MPKI: 2e-05
ITLB LOAD TRANSLATION ACCESS:    7170737  HIT:    7170736  MISS:          1  HIT %:        100  MISS %: 1.39456e-05   MPKI: 2e-05
ITLB PREFETCH  REQUESTED:          0  ISSUED:          0  USEFUL:          0  USELESS:          0
ITLB USEFUL LOAD PREFETCHES:          0 PREFETCH ISSUED TO LOWER LEVEL:          0  ACCURACY: -nan
ITLB TIMELY PREFETCHES:          0 LATE PREFETCHES: 0 DROPPED PREFETCHES: 0
ITLB PREFETCHES SAME FILL-ORIGIN LEVEL: 0 DIFFERENT FILL-ORIGIN LEVEL: 0
ITLB AVERAGE MISS LATENCY: 150 cycles
ITLB RQ	ACCESS:    8838353	FORWARD:          0	MERGED:    1667616	TO_CACHE:    7170737

DTLB TOTAL     ACCESS:    6344336  HIT:    6333725  MISS:      10611  HIT %:    99.8327  MISS %:   0.167252   MPKI: 0.21222
DTLB LOAD TRANSLATION ACCESS:    6344336  HIT:    6333725  MISS:      10611  HIT %:    99.8327  MISS %:   0.167252   MPKI: 0.21222
DTLB PREFETCH  REQUESTED:          0  ISSUED:          0  USEFUL:          0  USELESS:          0
DTLB USEFUL LOAD PREFETCHES:          0 PREFETCH ISSUED TO LOWER LEVEL:          0  ACCURACY: -nan
DTLB TIMELY PREFETCHES:          0 LATE PREFETCHES: 0 DROPPED PREFETCHES: 0
DTLB PREFETCHES SAME FILL-ORIGIN LEVEL: 0 DIFFERENT FILL-ORIGIN LEVEL: 0
DTLB AVERAGE MISS LATENCY: 11.3395 cycles
DTLB RQ	ACCESS:    7655969	FORWARD:          0	MERGED:    1310213	TO_CACHE:    6345756

STLB TOTAL     ACCESS:     885819  HIT:     885666  MISS:        153  HIT %:    99.9827  MISS %:  0.0172722   MPKI: 0.00306
STLB LOAD TRANSLATION ACCESS:      10612  HIT:      10459  MISS:        153  HIT %:    98.5582  MISS %:    1.44176   MPKI: 0.00306
STLB TRANSLATION FROM L1D PREFETCHER ACCESS:     875207  HIT:     875207  MISS:          0  HIT %:        100  MISS %:          0   MPKI: 0
STLB PREFETCH  REQUESTED:          0  ISSUED:          0  USEFUL:          0  USELESS:          0
STLB USEFUL LOAD PREFETCHES:          0 PREFETCH ISSUED TO LOWER LEVEL:          0  ACCURACY: -nan
STLB TIMELY PREFETCHES:          0 LATE PREFETCHES: 0 DROPPED PREFETCHES: 0
STLB PREFETCHES SAME FILL-ORIGIN LEVEL: 0 DIFFERENT FILL-ORIGIN LEVEL: 0
STLB AVERAGE MISS LATENCY: 161.078 cycles
STLB RQ	ACCESS:    1529480	FORWARD:          0	MERGED:     643661	TO_CACHE:     885819

STLB Hit, L1D data hit: 0
STLB Hit, L2C data hit: 0
STLB Hit, LLC data hit: 0
STLB Hit, LLC data miss: 0
STLB STLB hints to L2: 0
L1D TOTAL     ACCESS:    9172270  HIT:    9129076  MISS:      43194  HIT %:    99.5291  MISS %:   0.470919   MPKI: 0.86388
L1D LOAD      ACCESS:    4505728  HIT:    4499958  MISS:       5770  HIT %:    99.8719  MISS %:   0.128059   MPKI: 0.1154
L1D RFO       ACCESS:    3148392  HIT:    3147889  MISS:        503  HIT %:     99.984  MISS %:  0.0159764   MPKI: 0.01006
L1D PREFETCH  ACCESS:    1518150  HIT:    1481229  MISS:      36921  HIT %:     97.568  MISS %:    2.43197   MPKI: 0.73842
AGUS PREFETCH L1 MISS: 0
L1D PREFETCH  REQUESTED:    3113151  ISSUED:    3037870  USEFUL:      13933  USELESS:      22904
L1D USEFUL LOAD PREFETCHES:      13933 PREFETCH ISSUED TO LOWER LEVEL:      37476  ACCURACY: 37.1785
L1D TIMELY PREFETCHES:      13933 LATE PREFETCHES: 555 DROPPED PREFETCHES: 0
L1D PREFETCHES SAME FILL-ORIGIN LEVEL: 37476 DIFFERENT FILL-ORIGIN LEVEL: 0
L1D AVERAGE MISS LATENCY: 43.7405 cycles
L1D RQ	ACCESS:   12029894	FORWARD:          0	MERGED:    7503442	TO_CACHE:    4507440
L1D WQ	ACCESS:    3150756	FORWARD:      19146	MERGED:       2227	TO_CACHE:    3148529
L1D PQ	ACCESS:    1519002	FORWARD:          0	MERGED:          0	TO_CACHE:    1518868

L1D UNIQUE REGIONS ACCESSED: 0
L1D REGIONS CONFLICTS: 0
L1D Cross Page Prefetch Requests: 481264
L1D Same Page Prefetch Requests: 3614959
L1D ROI Sum of L1D PQ occupancy: 21254591
L1D PREFETCHES PUSHED FROM L2C: 0
L1I TOTAL     ACCESS:    8838343  HIT:    8838313  MISS:         30  HIT %:    99.9997  MISS %: 0.00033943   MPKI: 0.0006
L1I LOAD      ACCESS:    8838343  HIT:    8838313  MISS:         30  HIT %:    99.9997  MISS %: 0.00033943   MPKI: 0.0006
L1I PREFETCH  REQUESTED:          0  ISSUED:          0  USEFUL:          0  USELESS:          0
L1I USEFUL LOAD PREFETCHES:          0 PREFETCH ISSUED TO LOWER LEVEL:          0  ACCURACY: -nan
L1I TIMELY PREFETCHES:          0 LATE PREFETCHES: 0 DROPPED PREFETCHES: 0
L1I PREFETCHES SAME FILL-ORIGIN LEVEL: 0 DIFFERENT FILL-ORIGIN LEVEL: 0
L1I AVERAGE MISS LATENCY: 183 cycles
L1I RQ	ACCESS:   12158904	FORWARD:          0	MERGED:    3320551	TO_CACHE:    8838353

BTB TOTAL     ACCESS:    1864249  HIT:    1740734  MISS:     123515  HIT %:    93.3745  MISS %:    6.62546   MPKI: 2.4703
BTB BRANCH_DIRECT_JUMP	ACCESS:      36659  HIT:      36640  MISS:         19
BTB BRANCH_INDIRECT	ACCESS:       3046  HIT:       3045  MISS:          1
BTB BRANCH_CONDITIONAL	ACCESS:    1548181  HIT:    1548108  MISS:         73
BTB BRANCH_DIRECT_CALL	ACCESS:      71241  HIT:      71231  MISS:         10
BTB BRANCH_INDIRECT_CALL	ACCESS:      66940  HIT:      66909  MISS:         31
BTB BRANCH_RETURN	ACCESS:     138182  HIT:      14801  MISS:     123381
BTB BRANCH_OTHER ACCESS:          0  HIT:          0  MISS:          0

L2C TOTAL     ACCESS:      43929  HIT:      28151  MISS:      15778  HIT %:     64.083  MISS %:     35.917   MPKI: 0.31556
L2C LOAD      ACCESS:       5245  HIT:       1439  MISS:       3806  HIT %:    27.4357  MISS %:    72.5643   MPKI: 0.07612
L2C DATA LOAD MPKI: 0.07552
L2C INSTRUCTION LOAD MPKI: 0.0006
L2C RFO       ACCESS:        503  HIT:         47  MISS:        456  HIT %:    9.34394  MISS %:    90.6561   MPKI: 0.00912
L2C PREFETCH  ACCESS:      37476  HIT:      26008  MISS:      11468  HIT %:    69.3991  MISS %:    30.6009   MPKI: 0.22936
AGUS PREFETCH L1 MISS: 0
L2C DATA PREFETCH MPKI: 0.22936
L2C INSTRUCTION PREFETCH MPKI: 0
L2C WRITEBACK ACCESS:        552  HIT:        536  MISS:         16  HIT %:    97.1014  MISS %:    2.89855   MPKI: 0.00032
L2C LOAD TRANSLATION ACCESS:        153  HIT:        121  MISS:         32  HIT %:     79.085  MISS %:     20.915   MPKI: 0.00064
L2C PREFETCH  REQUESTED:          0  ISSUED:          0  USEFUL:        805  USELESS:      10292
L2C USEFUL LOAD PREFETCHES:        805 PREFETCH ISSUED TO LOWER LEVEL:      11468  ACCURACY: 7.01953
L2C TIMELY PREFETCHES:        805 LATE PREFETCHES: 0 DROPPED PREFETCHES: 0
L2C PREFETCHES SAME FILL-ORIGIN LEVEL: 0 DIFFERENT FILL-ORIGIN LEVEL: 0
L2C AVERAGE MISS LATENCY: 78.6542 cycles
L2C RQ	ACCESS:       5901	FORWARD:          0	MERGED:          0	TO_CACHE:       5901
L2C WQ	ACCESS:        552	FORWARD:          0	MERGED:          0	TO_CACHE:        552
L2C PQ	ACCESS:      37476	FORWARD:          0	MERGED:          0	TO_CACHE:      37476

L2C Instructions Evicting Data 30
L2C Translations Evicting Data 31
L2C Data Evicting Data 15638
L2C Instructions Evicting Instructions 0
L2C Translations Evicting Instructions 0
L2C Data Evicting Instructions 29
L2C Instructions Evicting Translations 0
L2C Translations Evicting Translations 1
L2C Data Evicting Translations 33
L2C Dense regions hint from L2: 0
PSCL5 TOTAL     ACCESS:        153  HIT:        153  MISS:          0  HIT %:        100  MISS %:          0   MPKI: 0
PSCL5 LOAD TRANSLATION ACCESS:        153  HIT:        153  MISS:          0  HIT %:        100  MISS %:          0   MPKI: 0
PSCL5 PREFETCH  REQUESTED:          0  ISSUED:          0  USEFUL:          0  USELESS:          0
PSCL5 USEFUL LOAD PREFETCHES:          0 PREFETCH ISSUED TO LOWER LEVEL:          0  ACCURACY: -nan
PSCL5 TIMELY PREFETCHES:          0 LATE PREFETCHES: 0 DROPPED PREFETCHES: 0
PSCL5 PREFETCHES SAME FILL-ORIGIN LEVEL: 0 DIFFERENT FILL-ORIGIN LEVEL: 0

PSCL4 TOTAL     ACCESS:        153  HIT:        153  MISS:          0  HIT %:        100  MISS %:          0   MPKI: 0
PSCL4 LOAD TRANSLATION ACCESS:        153  HIT:        153  MISS:          0  HIT %:        100  MISS %:          0   MPKI: 0
PSCL4 PREFETCH  REQUESTED:          0  ISSUED:          0  USEFUL:          0  USELESS:          0
PSCL4 USEFUL LOAD PREFETCHES:          0 PREFETCH ISSUED TO LOWER LEVEL:          0  ACCURACY: -nan
PSCL4 TIMELY PREFETCHES:          0 LATE PREFETCHES: 0 DROPPED PREFETCHES: 0
PSCL4 PREFETCHES SAME FILL-ORIGIN LEVEL: 0 DIFFERENT FILL-ORIGIN LEVEL: 0

PSCL3 TOTAL     ACCESS:        153  HIT:        153  MISS:          0  HIT %:        100  MISS %:          0   MPKI: 0
PSCL3 LOAD TRANSLATION ACCESS:        153  HIT:        153  MISS:          0  HIT %:        100  MISS %:          0   MPKI: 0
PSCL3 PREFETCH  REQUESTED:          0  ISSUED:          0  USEFUL:          0  USELESS:          0
PSCL3 USEFUL LOAD PREFETCHES:          0 PREFETCH ISSUED TO LOWER LEVEL:          0  ACCURACY: -nan
PSCL3 TIMELY PREFETCHES:          0 LATE PREFETCHES: 0 DROPPED PREFETCHES: 0
PSCL3 PREFETCHES SAME FILL-ORIGIN LEVEL: 0 DIFFERENT FILL-ORIGIN LEVEL: 0

PSCL2 TOTAL     ACCESS:        153  HIT:        152  MISS:          1  HIT %:    99.3464  MISS %:   0.653595   MPKI: 2e-05
PSCL2 LOAD TRANSLATION ACCESS:        153  HIT:        152  MISS:          1  HIT %:    99.3464  MISS %:   0.653595   MPKI: 2e-05
PSCL2 PREFETCH  REQUESTED:          0  ISSUED:          0  USEFUL:          0  USELESS:          0
PSCL2 USEFUL LOAD PREFETCHES:          0 PREFETCH ISSUED TO LOWER LEVEL:          0  ACCURACY: -nan
PSCL2 TIMELY PREFETCHES:          0 LATE PREFETCHES: 0 DROPPED PREFETCHES: 0
PSCL2 PREFETCHES SAME FILL-ORIGIN LEVEL: 0 DIFFERENT FILL-ORIGIN LEVEL: 0

LLC TOTAL     ACCESS:      16233  HIT:       8547  MISS:       7686  HIT %:     52.652  MISS %:     47.348   MPKI: 0.15372
LLC LOAD      ACCESS:       3806  HIT:       1953  MISS:       1853  HIT %:    51.3137  MISS %:    48.6863   MPKI: 0.03706
LLC RFO       ACCESS:        456  HIT:          1  MISS:        455  HIT %:   0.219298  MISS %:    99.7807   MPKI: 0.0091
LLC PREFETCH  ACCESS:      11468  HIT:       6117  MISS:       5351  HIT %:    53.3397  MISS %:    46.6603   MPKI: 0.10702
AGUS PREFETCH L1 MISS: 0
LLC WRITEBACK ACCESS:        471  HIT:        471  MISS:          0  HIT %:        100  MISS %:          0   MPKI: 0
LLC LOAD TRANSLATION ACCESS:         32  HIT:          5  MISS:         27  HIT %:     15.625  MISS %:     84.375   MPKI: 0.00054
LLC PREFETCH  REQUESTED:          0  ISSUED:          0  USEFUL:       1688  USELESS:          0
LLC USEFUL LOAD PREFETCHES:       1688 PREFETCH ISSUED TO LOWER LEVEL:       5351  ACCURACY: 31.5455
LLC TIMELY PREFETCHES:       1688 LATE PREFETCHES: 0 DROPPED PREFETCHES: 0
LLC PREFETCHES SAME FILL-ORIGIN LEVEL: 0 DIFFERENT FILL-ORIGIN LEVEL: 0
LLC AVERAGE MISS LATENCY: 99.7304 cycles
LLC RQ	ACCESS:       4294	FORWARD:          0	MERGED:          0	TO_CACHE:       4294
LLC WQ	ACCESS:        471	FORWARD:          0	MERGED:          0	TO_CACHE:        471
LLC PQ	ACCESS:      11468	FORWARD:          0	MERGED:          0	TO_CACHE:      11468

LLC Dense regions hint to LLC: 0

RAW hits: 111408
Loads Generated: 12141302
Loads sent to L1D: 12029894
Stores Generated: 3150752
Stores sent to L1D: 3150756
Major fault: 0 Minor fault: 474
Allocated PAGES: 474

stream: 
stream:times selected: 3821364
stream:pref_reqs: 7839489
stream:pref_reqs_filtered_out: 5598812
stream:pref_filled: 24864
stream:pref_useful: 10031
stream:pref_late: 27
stream:misses: 1453
stream:misses_by_poll: 0

CS: 
CS:times selected: 1441825
CS:pref_reqs: 3511376
CS:pref_reqs_filtered_out: 2086144
CS:pref_filled: 6450
CS:pref_useful: 3950
CS:pref_late: 400
CS:misses: 2535
CS:misses_by_poll: 8

CPLX: 
CPLX:times selected: 2378776
CPLX:pref_reqs: 4099216
CPLX:pref_reqs_filtered_out: 2942053
CPLX:pref_filled: 43527
CPLX:pref_useful: 17459
CPLX:pref_late: 158
CPLX:misses: 1898
CPLX:misses_by_poll: 26

ISB: 
ISB:total access:7650378
ISB:times selected:787748
ISB:canary counter:0
ISB:pref_reqs: 3121233
ISB:pref_reqs_filtered_out: 2495972
ISB:pref_filled: 6819
ISB:pref_useful: 2714
ISB:pref_late: 12
ISB:misses: 1063
ISB:misses_by_poll: 8
ISB:Stream end: 374937
ISB:No Prediction: 6862630 89.7031
ISB:No translation: 373053443 4876.27
ISB:Predictions: 574340 7.50734

NL_L1: 
NL:times selected: 2213
NL:pref_reqs: 2213
NL:pref_reqs_filtered_out: 919
NL:pref_filled: 53
NL:pref_useful: 39
NL:pref_late: 0
NL:misses: 4
NL:misses_by_poll: 0

Coverage: 70.7151
total selections: 8431926
total_filled: 36921
total_useful: 13933
total_late: 632
total_polluted: 42
total_misses_after_warmup: 7482
conflicts: 1322786

test: 0
Prefetcher final stats
Training Unit Size: 52
Addr table size: 4689 4692
Stream divergence: 796 0.0104047
Stream divergence -- new stream: 0
--------------------------Training unit table ------------------------

DRAM Statistics
 CHANNEL 0
 RQ ROW_BUFFER_HIT:       5588  ROW_BUFFER_MISS:       2098
 DBUS_CONGESTED:          0
 WQ ROW_BUFFER_HIT:          0  ROW_BUFFER_MISS:          0  FULL:          0

 AVG_CONGESTED_CYCLE: -
 All warmup complete: 2
Channel 0 Bank busy for read cycles: 0
Channel 0 Bank busy for write cycles: 0
Channel 0
Rank 0
0banks busy for read cycles: 56967233
0banks busy for write cycles: 0
1banks busy for read cycles: 327997
1banks busy for write cycles: 0
2banks busy for read cycles: 55196
2banks busy for write cycles: 0
3banks busy for read cycles: 14795
3banks busy for write cycles: 0
4banks busy for read cycles: 8920
4banks busy for write cycles: 0
5banks busy for read cycles: 4283
5banks busy for write cycles: 0
6banks busy for read cycles: 2411
6banks busy for write cycles: 0
7banks busy for read cycles: 2284
7banks busy for write cycles: 0
8banks busy for read cycles: 2973
8banks busy for write cycles: 0

CPU 0 Branch Prediction Accuracy: 88.47% MPKI: 4.83304 Average ROB Occupancy at Mispredict: 35.7413
Branch types
NOT_BRANCH: 47903889 95.8078%
BRANCH_DIRECT_JUMP: 36659 0.073318%
BRANCH_INDIRECT: 3046 0.006092%
BRANCH_CONDITIONAL: 1779789 3.55958%
BRANCH_DIRECT_CALL: 71241 0.142482%
BRANCH_INDIRECT_CALL: 66940 0.13388%
BRANCH_RETURN: 138182 0.276364%
BRANCH_OTHER: 0 0%

DRAM PAGES: 1048576
Allocated PAGES: 474
