
*** ChampSim Multicore Out-of-Order Simulator ***

Warmup Instructions: 50000000
Simulation Instructions: 50000000
Number of CPUs: 1
LLC sets: 2048
LLC ways: 16
Off-chip DRAM Size: 4096 MB Channels: 1 Width: 64-bit Data Rate: 6400 MT/s
CPU 0 runs ./traces/SPEC-CPU2017/625.x264_s-12B.champsimtrace.xz
.xz
CPU 0 Bimodal branch predictor
BTB has LRU replacement policy
ITLB has LRU replacement policy
DTLB has LRU replacement policy
STLB has LRU replacement policy
L1I has LRU replacement policy
L1D has LRU replacement policy
L2C has LRU replacement policy
LLC has LRU replacement policy
Heartbeat CPU 0 instructions: 10000001 cycles: 2776956 heartbeat IPC: 3.60107 cumulative IPC: 3.60107 (Simulation time: 0 hr 0 min 47 sec) 
Heartbeat CPU 0 instructions: 20000000 cycles: 5565907 heartbeat IPC: 3.58558 cumulative IPC: 3.5933 (Simulation time: 0 hr 1 min 45 sec) 
Heartbeat CPU 0 instructions: 30000001 cycles: 8351330 heartbeat IPC: 3.59012 cumulative IPC: 3.59224 (Simulation time: 0 hr 2 min 43 sec) 
Heartbeat CPU 0 instructions: 40000000 cycles: 11136851 heartbeat IPC: 3.58999 cumulative IPC: 3.59168 (Simulation time: 0 hr 3 min 40 sec) 
Heartbeat CPU 0 instructions: 50000001 cycles: 13925015 heartbeat IPC: 3.58659 cumulative IPC: 3.59066 (Simulation time: 0 hr 4 min 36 sec) 

Warmup complete CPU 0 instructions: 50000001 cycles: 13925015 (Simulation time: 0 hr 4 min 36 sec) 

Heartbeat CPU 0 instructions: 60000000 cycles: 25243894 heartbeat IPC: 0.88348 cumulative IPC: 0.88348 (Simulation time: 0 hr 5 min 27 sec) 
Heartbeat CPU 0 instructions: 70000001 cycles: 36812273 heartbeat IPC: 0.864425 cumulative IPC: 0.873849 (Simulation time: 0 hr 6 min 22 sec) 
Heartbeat CPU 0 instructions: 80000000 cycles: 48284947 heartbeat IPC: 0.871636 cumulative IPC: 0.87311 (Simulation time: 0 hr 7 min 15 sec) 
Heartbeat CPU 0 instructions: 90000002 cycles: 59787270 heartbeat IPC: 0.86939 cumulative IPC: 0.872177 (Simulation time: 0 hr 7 min 54 sec) 
Heartbeat CPU 0 instructions: 100000000 cycles: 71355385 heartbeat IPC: 0.864445 cumulative IPC: 0.870619 (Simulation time: 0 hr 8 min 48 sec) 
Finished CPU 0 instructions: 50000001 cycles: 57430378 cumulative IPC: 0.870619 (Simulation time: 0 hr 8 min 48 sec) 

ChampSim completed all CPUs

Region of Interest Statistics

CPU 0 cumulative IPC: 0.870619 instructions: 50000001 cycles: 57430378
ITLB TOTAL     ACCESS:    7170746  HIT:    7170745  MISS:          1  HIT %:        100  MISS %: 1.39456e-05   MPKI: 2e-05
ITLB LOAD TRANSLATION ACCESS:    7170746  HIT:    7170745  MISS:          1  HIT %:        100  MISS %: 1.39456e-05   MPKI: 2e-05
ITLB PREFETCH  REQUESTED:          0  ISSUED:          0  USEFUL:          0  USELESS:          0
ITLB USEFUL LOAD PREFETCHES:          0 PREFETCH ISSUED TO LOWER LEVEL:          0  ACCURACY: -nan
ITLB TIMELY PREFETCHES:          0 LATE PREFETCHES: 0 DROPPED PREFETCHES: 0
ITLB PREFETCHES SAME FILL-ORIGIN LEVEL: 0 DIFFERENT FILL-ORIGIN LEVEL: 0
ITLB AVERAGE MISS LATENCY: 150 cycles
ITLB RQ	ACCESS:    8838362	FORWARD:          0	MERGED:    1667616	TO_CACHE:    7170746

DTLB TOTAL     ACCESS:    6341003  HIT:    6330392  MISS:      10611  HIT %:    99.8327  MISS %:   0.167339   MPKI: 0.21222
DTLB LOAD TRANSLATION ACCESS:    6341003  HIT:    6330392  MISS:      10611  HIT %:    99.8327  MISS %:   0.167339   MPKI: 0.21222
DTLB PREFETCH  REQUESTED:          0  ISSUED:          0  USEFUL:          0  USELESS:          0
DTLB USEFUL LOAD PREFETCHES:          0 PREFETCH ISSUED TO LOWER LEVEL:          0  ACCURACY: -nan
DTLB TIMELY PREFETCHES:          0 LATE PREFETCHES: 0 DROPPED PREFETCHES: 0
DTLB PREFETCHES SAME FILL-ORIGIN LEVEL: 0 DIFFERENT FILL-ORIGIN LEVEL: 0
DTLB AVERAGE MISS LATENCY: 11.3396 cycles
DTLB RQ	ACCESS:    7654551	FORWARD:          0	MERGED:    1312115	TO_CACHE:    6342436

STLB TOTAL     ACCESS:      21753  HIT:      21600  MISS:        153  HIT %:    99.2966  MISS %:   0.703351   MPKI: 0.00306
STLB LOAD TRANSLATION ACCESS:      10612  HIT:      10459  MISS:        153  HIT %:    98.5582  MISS %:    1.44176   MPKI: 0.00306
STLB TRANSLATION FROM L1D PREFETCHER ACCESS:      11141  HIT:      11141  MISS:          0  HIT %:        100  MISS %:          0   MPKI: 0
STLB PREFETCH  REQUESTED:          0  ISSUED:          0  USEFUL:          0  USELESS:          0
STLB USEFUL LOAD PREFETCHES:          0 PREFETCH ISSUED TO LOWER LEVEL:          0  ACCURACY: -nan
STLB TIMELY PREFETCHES:          0 LATE PREFETCHES: 0 DROPPED PREFETCHES: 0
STLB PREFETCHES SAME FILL-ORIGIN LEVEL: 0 DIFFERENT FILL-ORIGIN LEVEL: 0
STLB AVERAGE MISS LATENCY: 160.431 cycles
STLB RQ	ACCESS:      55981	FORWARD:          0	MERGED:      34228	TO_CACHE:      21753

STLB Hit, L1D data hit: 0
STLB Hit, L2C data hit: 0
STLB Hit, LLC data hit: 0
STLB Hit, LLC data miss: 0
STLB STLB hints to L2: 0
L1D TOTAL     ACCESS:    7694184  HIT:    7656949  MISS:      37235  HIT %:    99.5161  MISS %:   0.483937   MPKI: 0.7447
L1D LOAD      ACCESS:    4501841  HIT:    4491010  MISS:      10831  HIT %:    99.7594  MISS %:    0.24059   MPKI: 0.21662
L1D RFO       ACCESS:    3147495  HIT:    3146844  MISS:        651  HIT %:    99.9793  MISS %:  0.0206831   MPKI: 0.01302
L1D PREFETCH  ACCESS:      44848  HIT:      19095  MISS:      25753  HIT %:    42.5771  MISS %:    57.4229   MPKI: 0.51506
AGUS PREFETCH L1 MISS: 0
L1D PREFETCH  REQUESTED:     102563  ISSUED:      90738  USEFUL:       8375  USELESS:      17411
L1D USEFUL LOAD PREFETCHES:       8375 PREFETCH ISSUED TO LOWER LEVEL:      26101  ACCURACY: 32.0869
L1D TIMELY PREFETCHES:       8375 LATE PREFETCHES: 348 DROPPED PREFETCHES: 0
L1D PREFETCHES SAME FILL-ORIGIN LEVEL: 26101 DIFFERENT FILL-ORIGIN LEVEL: 0
L1D AVERAGE MISS LATENCY: 51.7886 cycles
L1D RQ	ACCESS:   12029891	FORWARD:          0	MERGED:    7504861	TO_CACHE:    4506030
L1D WQ	ACCESS:    3150756	FORWARD:      19000	MERGED:       2235	TO_CACHE:    3148521
L1D PQ	ACCESS:      45369	FORWARD:          0	MERGED:          0	TO_CACHE:      45369

L1D UNIQUE REGIONS ACCESSED: 0
L1D REGIONS CONFLICTS: 0
L1D Cross Page Prefetch Requests: 5760
L1D Same Page Prefetch Requests: 93294
L1D ROI Sum of L1D PQ occupancy: 656194
L1D PREFETCHES PUSHED FROM L2C: 0
L1I TOTAL     ACCESS:    8838350  HIT:    8838320  MISS:         30  HIT %:    99.9997  MISS %: 0.00033943   MPKI: 0.0006
L1I LOAD      ACCESS:    8838350  HIT:    8838320  MISS:         30  HIT %:    99.9997  MISS %: 0.00033943   MPKI: 0.0006
L1I PREFETCH  REQUESTED:          0  ISSUED:          0  USEFUL:          0  USELESS:          0
L1I USEFUL LOAD PREFETCHES:          0 PREFETCH ISSUED TO LOWER LEVEL:          0  ACCURACY: -nan
L1I TIMELY PREFETCHES:          0 LATE PREFETCHES: 0 DROPPED PREFETCHES: 0
L1I PREFETCHES SAME FILL-ORIGIN LEVEL: 0 DIFFERENT FILL-ORIGIN LEVEL: 0
L1I AVERAGE MISS LATENCY: 179.633 cycles
L1I RQ	ACCESS:   12159595	FORWARD:          0	MERGED:    3321233	TO_CACHE:    8838362

BTB TOTAL     ACCESS:    1864249  HIT:    1740734  MISS:     123515  HIT %:    93.3745  MISS %:    6.62546   MPKI: 2.4703
BTB BRANCH_DIRECT_JUMP	ACCESS:      36659  HIT:      36640  MISS:         19
BTB BRANCH_INDIRECT	ACCESS:       3046  HIT:       3045  MISS:          1
BTB BRANCH_CONDITIONAL	ACCESS:    1548181  HIT:    1548108  MISS:         73
BTB BRANCH_DIRECT_CALL	ACCESS:      71241  HIT:      71231  MISS:         10
BTB BRANCH_INDIRECT_CALL	ACCESS:      66940  HIT:      66909  MISS:         31
BTB BRANCH_RETURN	ACCESS:     138182  HIT:      14801  MISS:     123381
BTB BRANCH_OTHER ACCESS:          0  HIT:          0  MISS:          0

L2C TOTAL     ACCESS:      38127  HIT:      21926  MISS:      16201  HIT %:    57.5078  MISS %:    42.4922   MPKI: 0.32402
L2C LOAD      ACCESS:      10513  HIT:       5329  MISS:       5184  HIT %:    50.6896  MISS %:    49.3104   MPKI: 0.10368
L2C DATA LOAD MPKI: 0.10308
L2C INSTRUCTION LOAD MPKI: 0.0006
L2C RFO       ACCESS:        651  HIT:        251  MISS:        400  HIT %:    38.5561  MISS %:    61.4439   MPKI: 0.008
L2C PREFETCH  ACCESS:      26101  HIT:      15526  MISS:      10575  HIT %:    59.4843  MISS %:    40.5157   MPKI: 0.2115
AGUS PREFETCH L1 MISS: 0
L2C DATA PREFETCH MPKI: 0.2115
L2C INSTRUCTION PREFETCH MPKI: 0
L2C WRITEBACK ACCESS:        709  HIT:        699  MISS:         10  HIT %:    98.5896  MISS %:    1.41044   MPKI: 0.0002
L2C LOAD TRANSLATION ACCESS:        153  HIT:        121  MISS:         32  HIT %:     79.085  MISS %:     20.915   MPKI: 0.00064
L2C PREFETCH  REQUESTED:          0  ISSUED:          0  USEFUL:       3397  USELESS:       8098
L2C USEFUL LOAD PREFETCHES:       3397 PREFETCH ISSUED TO LOWER LEVEL:      10575  ACCURACY: 32.1229
L2C TIMELY PREFETCHES:       3397 LATE PREFETCHES: 0 DROPPED PREFETCHES: 0
L2C PREFETCHES SAME FILL-ORIGIN LEVEL: 0 DIFFERENT FILL-ORIGIN LEVEL: 0
L2C AVERAGE MISS LATENCY: 83.1773 cycles
L2C RQ	ACCESS:      11317	FORWARD:          0	MERGED:          0	TO_CACHE:      11317
L2C WQ	ACCESS:        709	FORWARD:          0	MERGED:          0	TO_CACHE:        709
L2C PQ	ACCESS:      26101	FORWARD:          0	MERGED:          0	TO_CACHE:      26101

L2C Instructions Evicting Data 30
L2C Translations Evicting Data 31
L2C Data Evicting Data 16068
L2C Instructions Evicting Instructions 0
L2C Translations Evicting Instructions 0
L2C Data Evicting Instructions 28
L2C Instructions Evicting Translations 0
L2C Translations Evicting Translations 1
L2C Data Evicting Translations 33
L2C Dense regions hint from L2: 0
PSCL5 TOTAL     ACCESS:        153  HIT:        153  MISS:          0  HIT %:        100  MISS %:          0   MPKI: 0
PSCL5 LOAD TRANSLATION ACCESS:        153  HIT:        153  MISS:          0  HIT %:        100  MISS %:          0   MPKI: 0
PSCL5 PREFETCH  REQUESTED:          0  ISSUED:          0  USEFUL:          0  USELESS:          0
PSCL5 USEFUL LOAD PREFETCHES:          0 PREFETCH ISSUED TO LOWER LEVEL:          0  ACCURACY: -nan
PSCL5 TIMELY PREFETCHES:          0 LATE PREFETCHES: 0 DROPPED PREFETCHES: 0
PSCL5 PREFETCHES SAME FILL-ORIGIN LEVEL: 0 DIFFERENT FILL-ORIGIN LEVEL: 0

PSCL4 TOTAL     ACCESS:        153  HIT:        153  MISS:          0  HIT %:        100  MISS %:          0   MPKI: 0
PSCL4 LOAD TRANSLATION ACCESS:        153  HIT:        153  MISS:          0  HIT %:        100  MISS %:          0   MPKI: 0
PSCL4 PREFETCH  REQUESTED:          0  ISSUED:          0  USEFUL:          0  USELESS:          0
PSCL4 USEFUL LOAD PREFETCHES:          0 PREFETCH ISSUED TO LOWER LEVEL:          0  ACCURACY: -nan
PSCL4 TIMELY PREFETCHES:          0 LATE PREFETCHES: 0 DROPPED PREFETCHES: 0
PSCL4 PREFETCHES SAME FILL-ORIGIN LEVEL: 0 DIFFERENT FILL-ORIGIN LEVEL: 0

PSCL3 TOTAL     ACCESS:        153  HIT:        153  MISS:          0  HIT %:        100  MISS %:          0   MPKI: 0
PSCL3 LOAD TRANSLATION ACCESS:        153  HIT:        153  MISS:          0  HIT %:        100  MISS %:          0   MPKI: 0
PSCL3 PREFETCH  REQUESTED:          0  ISSUED:          0  USEFUL:          0  USELESS:          0
PSCL3 USEFUL LOAD PREFETCHES:          0 PREFETCH ISSUED TO LOWER LEVEL:          0  ACCURACY: -nan
PSCL3 TIMELY PREFETCHES:          0 LATE PREFETCHES: 0 DROPPED PREFETCHES: 0
PSCL3 PREFETCHES SAME FILL-ORIGIN LEVEL: 0 DIFFERENT FILL-ORIGIN LEVEL: 0

PSCL2 TOTAL     ACCESS:        153  HIT:        152  MISS:          1  HIT %:    99.3464  MISS %:   0.653595   MPKI: 2e-05
PSCL2 LOAD TRANSLATION ACCESS:        153  HIT:        152  MISS:          1  HIT %:    99.3464  MISS %:   0.653595   MPKI: 2e-05
PSCL2 PREFETCH  REQUESTED:          0  ISSUED:          0  USEFUL:          0  USELESS:          0
PSCL2 USEFUL LOAD PREFETCHES:          0 PREFETCH ISSUED TO LOWER LEVEL:          0  ACCURACY: -nan
PSCL2 TIMELY PREFETCHES:          0 LATE PREFETCHES: 0 DROPPED PREFETCHES: 0
PSCL2 PREFETCHES SAME FILL-ORIGIN LEVEL: 0 DIFFERENT FILL-ORIGIN LEVEL: 0

LLC TOTAL     ACCESS:      16671  HIT:       8452  MISS:       8219  HIT %:    50.6988  MISS %:    49.3012   MPKI: 0.16438
LLC LOAD      ACCESS:       5184  HIT:       2443  MISS:       2741  HIT %:    47.1258  MISS %:    52.8742   MPKI: 0.05482
LLC RFO       ACCESS:        400  HIT:          4  MISS:        396  HIT %:          1  MISS %:         99   MPKI: 0.00792
LLC PREFETCH  ACCESS:      10575  HIT:       5520  MISS:       5055  HIT %:    52.1986  MISS %:    47.8014   MPKI: 0.1011
AGUS PREFETCH L1 MISS: 0
LLC WRITEBACK ACCESS:        480  HIT:        480  MISS:          0  HIT %:        100  MISS %:          0   MPKI: 0
LLC LOAD TRANSLATION ACCESS:         32  HIT:          5  MISS:         27  HIT %:     15.625  MISS %:     84.375   MPKI: 0.00054
LLC PREFETCH  REQUESTED:          0  ISSUED:          0  USEFUL:       1823  USELESS:          0
LLC USEFUL LOAD PREFETCHES:       1823 PREFETCH ISSUED TO LOWER LEVEL:       5055  ACCURACY: 36.0633
LLC TIMELY PREFETCHES:       1823 LATE PREFETCHES: 0 DROPPED PREFETCHES: 0
LLC PREFETCHES SAME FILL-ORIGIN LEVEL: 0 DIFFERENT FILL-ORIGIN LEVEL: 0
LLC AVERAGE MISS LATENCY: 104.48 cycles
LLC RQ	ACCESS:       5616	FORWARD:          0	MERGED:          0	TO_CACHE:       5616
LLC WQ	ACCESS:        480	FORWARD:          0	MERGED:          0	TO_CACHE:        480
LLC PQ	ACCESS:      10575	FORWARD:          0	MERGED:          0	TO_CACHE:      10575

LLC Dense regions hint to LLC: 0

RAW hits: 111411
Loads Generated: 12141302
Loads sent to L1D: 12029891
Stores Generated: 3150752
Stores sent to L1D: 3150756
Major fault: 0 Minor fault: 474
Allocated PAGES: 474

stream: 
stream:times selected: 19963
stream:pref_filled: 43642
stream:pref_useful: 17427
stream:pref_late: 29
stream:misses: 5385
stream:misses_by_poll: 0

CS: 
CS:times selected: 2322
CS:pref_filled: 1301
CS:pref_useful: 1058
CS:pref_late: 161
CS:misses: 2191
CS:misses_by_poll: 0

CPLX: 
CPLX:times selected: 17467
CPLX:pref_filled: 2002
CPLX:pref_useful: 1278
CPLX:pref_late: 168
CPLX:misses: 16826
CPLX:misses_by_poll: 2

NL_L1: 
NL:times selected: 125
NL:pref_filled: 57
NL:pref_useful: 30
NL:pref_late: 0
NL:misses: 154
NL:misses_by_poll: 0

Coverage: 43.6062
total selections: 39877
total_filled: 25753
total_useful: 8375
total_late: 388
total_polluted: 2
total_misses_after_warmup: 15020
conflicts: 873

test: 8121
ISB Prefetcher final stats
Training Unit Size: 60
Addr table size: 13725 13726


Triggers: 19965
No Prediction: 13937 69.8072
Stream end: 3763
No translation: 3800709 19036.9
Predictions: 9400 47.0824


Stream divergence: 4712 23.6013
Stream divergence -- new stream: 0

DRAM Statistics
 CHANNEL 0
 RQ ROW_BUFFER_HIT:       6182  ROW_BUFFER_MISS:       2037
 DBUS_CONGESTED:          0
 WQ ROW_BUFFER_HIT:          0  ROW_BUFFER_MISS:          0  FULL:          0

 AVG_CONGESTED_CYCLE: -
 All warmup complete: 2
Channel 0 Bank busy for read cycles: 0
Channel 0 Bank busy for write cycles: 0
Channel 0
Rank 0
0banks busy for read cycles: 57150009
0banks busy for write cycles: 0
1banks busy for read cycles: 165783
1banks busy for write cycles: 0
2banks busy for read cycles: 42530
2banks busy for write cycles: 0
3banks busy for read cycles: 19261
3banks busy for write cycles: 0
4banks busy for read cycles: 12967
4banks busy for write cycles: 0
5banks busy for read cycles: 9102
5banks busy for write cycles: 0
6banks busy for read cycles: 11224
6banks busy for write cycles: 0
7banks busy for read cycles: 14704
7banks busy for write cycles: 0
8banks busy for read cycles: 4799
8banks busy for write cycles: 0

CPU 0 Branch Prediction Accuracy: 88.47% MPKI: 4.83304 Average ROB Occupancy at Mispredict: 36.0327
Branch types
NOT_BRANCH: 47903889 95.8078%
BRANCH_DIRECT_JUMP: 36659 0.073318%
BRANCH_INDIRECT: 3046 0.006092%
BRANCH_CONDITIONAL: 1779789 3.55958%
BRANCH_DIRECT_CALL: 71241 0.142482%
BRANCH_INDIRECT_CALL: 66940 0.13388%
BRANCH_RETURN: 138182 0.276364%
BRANCH_OTHER: 0 0%

DRAM PAGES: 1048576
Allocated PAGES: 474
