
*** ChampSim Multicore Out-of-Order Simulator ***

Warmup Instructions: 50000000
Simulation Instructions: 50000000
Number of CPUs: 1
LLC sets: 2048
LLC ways: 16
Off-chip DRAM Size: 4096 MB Channels: 1 Width: 64-bit Data Rate: 6400 MT/s
CPU 0 runs ./traces/SPEC-CPU2017/625.x264_s-12B.champsimtrace.xz
.xz
CPU 0 Bimodal branch predictor
BTB has LRU replacement policy
ITLB has LRU replacement policy
DTLB has LRU replacement policy
STLB has LRU replacement policy
L1I has LRU replacement policy
L1D has LRU replacement policy
L2C has LRU replacement policy
LLC has LRU replacement policy
Heartbeat CPU 0 instructions: 10000001 cycles: 2777166 heartbeat IPC: 3.60079 cumulative IPC: 3.60079 (Simulation time: 0 hr 4 min 42 sec) 
Heartbeat CPU 0 instructions: 20000000 cycles: 5566066 heartbeat IPC: 3.58564 cumulative IPC: 3.5932 (Simulation time: 0 hr 12 min 6 sec) 
Heartbeat CPU 0 instructions: 30000001 cycles: 8351401 heartbeat IPC: 3.59023 cumulative IPC: 3.59221 (Simulation time: 0 hr 20 min 5 sec) 
Heartbeat CPU 0 instructions: 40000000 cycles: 11136879 heartbeat IPC: 3.59005 cumulative IPC: 3.59167 (Simulation time: 0 hr 27 min 30 sec) 
Heartbeat CPU 0 instructions: 50000001 cycles: 13924940 heartbeat IPC: 3.58672 cumulative IPC: 3.59068 (Simulation time: 0 hr 34 min 57 sec) 

Warmup complete CPU 0 instructions: 50000001 cycles: 13924940 (Simulation time: 0 hr 34 min 57 sec) 

Heartbeat CPU 0 instructions: 60000000 cycles: 25234324 heartbeat IPC: 0.884221 cumulative IPC: 0.884221 (Simulation time: 0 hr 36 min 36 sec) 
Heartbeat CPU 0 instructions: 70000001 cycles: 36788523 heartbeat IPC: 0.865486 cumulative IPC: 0.874754 (Simulation time: 0 hr 38 min 10 sec) 
Heartbeat CPU 0 instructions: 80000000 cycles: 48257337 heartbeat IPC: 0.87193 cumulative IPC: 0.87381 (Simulation time: 0 hr 39 min 50 sec) 
Heartbeat CPU 0 instructions: 90000002 cycles: 59755028 heartbeat IPC: 0.86974 cumulative IPC: 0.872789 (Simulation time: 0 hr 41 min 22 sec) 
Heartbeat CPU 0 instructions: 100000000 cycles: 71313627 heartbeat IPC: 0.865157 cumulative IPC: 0.871252 (Simulation time: 0 hr 43 min 1 sec) 
Finished CPU 0 instructions: 50000001 cycles: 57388695 cumulative IPC: 0.871252 (Simulation time: 0 hr 43 min 1 sec) 

ChampSim completed all CPUs

Region of Interest Statistics

CPU 0 cumulative IPC: 0.871252 instructions: 50000001 cycles: 57388695
ITLB TOTAL     ACCESS:    7170736  HIT:    7170735  MISS:          1  HIT %:        100  MISS %: 1.39456e-05   MPKI: 2e-05
ITLB LOAD TRANSLATION ACCESS:    7170736  HIT:    7170735  MISS:          1  HIT %:        100  MISS %: 1.39456e-05   MPKI: 2e-05
ITLB PREFETCH  REQUESTED:          0  ISSUED:          0  USEFUL:          0  USELESS:          0
ITLB USEFUL LOAD PREFETCHES:          0 PREFETCH ISSUED TO LOWER LEVEL:          0  ACCURACY: -nan
ITLB TIMELY PREFETCHES:          0 LATE PREFETCHES: 0 DROPPED PREFETCHES: 0
ITLB PREFETCHES SAME FILL-ORIGIN LEVEL: 0 DIFFERENT FILL-ORIGIN LEVEL: 0
ITLB AVERAGE MISS LATENCY: 150 cycles
ITLB RQ	ACCESS:    8838353	FORWARD:          0	MERGED:    1667617	TO_CACHE:    7170736

DTLB TOTAL     ACCESS:    6343788  HIT:    6333177  MISS:      10611  HIT %:    99.8327  MISS %:   0.167266   MPKI: 0.21222
DTLB LOAD TRANSLATION ACCESS:    6343788  HIT:    6333177  MISS:      10611  HIT %:    99.8327  MISS %:   0.167266   MPKI: 0.21222
DTLB PREFETCH  REQUESTED:          0  ISSUED:          0  USEFUL:          0  USELESS:          0
DTLB USEFUL LOAD PREFETCHES:          0 PREFETCH ISSUED TO LOWER LEVEL:          0  ACCURACY: -nan
DTLB TIMELY PREFETCHES:          0 LATE PREFETCHES: 0 DROPPED PREFETCHES: 0
DTLB PREFETCHES SAME FILL-ORIGIN LEVEL: 0 DIFFERENT FILL-ORIGIN LEVEL: 0
DTLB AVERAGE MISS LATENCY: 11.3396 cycles
DTLB RQ	ACCESS:    7655868	FORWARD:          0	MERGED:    1310659	TO_CACHE:    6345209

STLB TOTAL     ACCESS:     636298  HIT:     636145  MISS:        153  HIT %:     99.976  MISS %:  0.0240453   MPKI: 0.00306
STLB LOAD TRANSLATION ACCESS:      10612  HIT:      10459  MISS:        153  HIT %:    98.5582  MISS %:    1.44176   MPKI: 0.00306
STLB TRANSLATION FROM L1D PREFETCHER ACCESS:     625686  HIT:     625686  MISS:          0  HIT %:        100  MISS %:          0   MPKI: 0
STLB PREFETCH  REQUESTED:          0  ISSUED:          0  USEFUL:          0  USELESS:          0
STLB USEFUL LOAD PREFETCHES:          0 PREFETCH ISSUED TO LOWER LEVEL:          0  ACCURACY: -nan
STLB TIMELY PREFETCHES:          0 LATE PREFETCHES: 0 DROPPED PREFETCHES: 0
STLB PREFETCHES SAME FILL-ORIGIN LEVEL: 0 DIFFERENT FILL-ORIGIN LEVEL: 0
STLB AVERAGE MISS LATENCY: 161.078 cycles
STLB RQ	ACCESS:    1120449	FORWARD:          0	MERGED:     484151	TO_CACHE:     636298

STLB Hit, L1D data hit: 0
STLB Hit, L2C data hit: 0
STLB Hit, LLC data hit: 0
STLB Hit, LLC data miss: 0
STLB STLB hints to L2: 0
L1D TOTAL     ACCESS:    8762713  HIT:    8722605  MISS:      40108  HIT %:    99.5423  MISS %:   0.457712   MPKI: 0.80216
L1D LOAD      ACCESS:    4505175  HIT:    4498891  MISS:       6284  HIT %:    99.8605  MISS %:   0.139484   MPKI: 0.12568
L1D RFO       ACCESS:    3148455  HIT:    3147978  MISS:        477  HIT %:    99.9848  MISS %:  0.0151503   MPKI: 0.00954
L1D PREFETCH  ACCESS:    1109083  HIT:    1075736  MISS:      33347  HIT %:    96.9933  MISS %:    3.00672   MPKI: 0.66694
AGUS PREFETCH L1 MISS: 0
L1D PREFETCH  REQUESTED:    2221514  ISSUED:    2219806  USEFUL:      13190  USELESS:      20085
L1D USEFUL LOAD PREFETCHES:      13190 PREFETCH ISSUED TO LOWER LEVEL:      33911  ACCURACY: 38.8959
L1D TIMELY PREFETCHES:      13190 LATE PREFETCHES: 564 DROPPED PREFETCHES: 0
L1D PREFETCHES SAME FILL-ORIGIN LEVEL: 33911 DIFFERENT FILL-ORIGIN LEVEL: 0
L1D AVERAGE MISS LATENCY: 45.9597 cycles
L1D RQ	ACCESS:   12029895	FORWARD:          0	MERGED:    7503542	TO_CACHE:    4507340
L1D WQ	ACCESS:    3150756	FORWARD:      19145	MERGED:       2228	TO_CACHE:    3148528
L1D PQ	ACCESS:    1109969	FORWARD:          0	MERGED:          0	TO_CACHE:    1109837

L1D UNIQUE REGIONS ACCESSED: 0
L1D REGIONS CONFLICTS: 0
L1D Cross Page Prefetch Requests: 0
L1D Same Page Prefetch Requests: 3412777
L1D ROI Sum of L1D PQ occupancy: 14888810
L1D PREFETCHES PUSHED FROM L2C: 0
L1I TOTAL     ACCESS:    8838343  HIT:    8838313  MISS:         30  HIT %:    99.9997  MISS %: 0.00033943   MPKI: 0.0006
L1I LOAD      ACCESS:    8838343  HIT:    8838313  MISS:         30  HIT %:    99.9997  MISS %: 0.00033943   MPKI: 0.0006
L1I PREFETCH  REQUESTED:          0  ISSUED:          0  USEFUL:          0  USELESS:          0
L1I USEFUL LOAD PREFETCHES:          0 PREFETCH ISSUED TO LOWER LEVEL:          0  ACCURACY: -nan
L1I TIMELY PREFETCHES:          0 LATE PREFETCHES: 0 DROPPED PREFETCHES: 0
L1I PREFETCHES SAME FILL-ORIGIN LEVEL: 0 DIFFERENT FILL-ORIGIN LEVEL: 0
L1I AVERAGE MISS LATENCY: 183 cycles
L1I RQ	ACCESS:   12158924	FORWARD:          0	MERGED:    3320571	TO_CACHE:    8838353

BTB TOTAL     ACCESS:    1864249  HIT:    1740734  MISS:     123515  HIT %:    93.3745  MISS %:    6.62546   MPKI: 2.4703
BTB BRANCH_DIRECT_JUMP	ACCESS:      36659  HIT:      36640  MISS:         19
BTB BRANCH_INDIRECT	ACCESS:       3046  HIT:       3045  MISS:          1
BTB BRANCH_CONDITIONAL	ACCESS:    1548181  HIT:    1548108  MISS:         73
BTB BRANCH_DIRECT_CALL	ACCESS:      71241  HIT:      71231  MISS:         10
BTB BRANCH_INDIRECT_CALL	ACCESS:      66940  HIT:      66909  MISS:         31
BTB BRANCH_RETURN	ACCESS:     138182  HIT:      14801  MISS:     123381
BTB BRANCH_OTHER ACCESS:          0  HIT:          0  MISS:          0

L2C TOTAL     ACCESS:      40801  HIT:      24958  MISS:      15843  HIT %:    61.1701  MISS %:    38.8299   MPKI: 0.31686
L2C LOAD      ACCESS:       5750  HIT:       1554  MISS:       4196  HIT %:    27.0261  MISS %:    72.9739   MPKI: 0.08392
L2C DATA LOAD MPKI: 0.08332
L2C INSTRUCTION LOAD MPKI: 0.0006
L2C RFO       ACCESS:        477  HIT:         21  MISS:        456  HIT %:    4.40252  MISS %:    95.5975   MPKI: 0.00912
L2C PREFETCH  ACCESS:      33911  HIT:      22762  MISS:      11149  HIT %:    67.1228  MISS %:    32.8772   MPKI: 0.22298
AGUS PREFETCH L1 MISS: 0
L2C DATA PREFETCH MPKI: 0.22298
L2C INSTRUCTION PREFETCH MPKI: 0
L2C WRITEBACK ACCESS:        510  HIT:        500  MISS:         10  HIT %:    98.0392  MISS %:    1.96078   MPKI: 0.0002
L2C LOAD TRANSLATION ACCESS:        153  HIT:        121  MISS:         32  HIT %:     79.085  MISS %:     20.915   MPKI: 0.00064
L2C PREFETCH  REQUESTED:          0  ISSUED:          0  USEFUL:        835  USELESS:      10335
L2C USEFUL LOAD PREFETCHES:        835 PREFETCH ISSUED TO LOWER LEVEL:      11149  ACCURACY: 7.48946
L2C TIMELY PREFETCHES:        835 LATE PREFETCHES: 0 DROPPED PREFETCHES: 0
L2C PREFETCHES SAME FILL-ORIGIN LEVEL: 0 DIFFERENT FILL-ORIGIN LEVEL: 0
L2C AVERAGE MISS LATENCY: 78.4408 cycles
L2C RQ	ACCESS:       6380	FORWARD:          0	MERGED:          0	TO_CACHE:       6380
L2C WQ	ACCESS:        510	FORWARD:          0	MERGED:          0	TO_CACHE:        510
L2C PQ	ACCESS:      33911	FORWARD:          0	MERGED:          0	TO_CACHE:      33911

L2C Instructions Evicting Data 30
L2C Translations Evicting Data 31
L2C Data Evicting Data 15713
L2C Instructions Evicting Instructions 0
L2C Translations Evicting Instructions 0
L2C Data Evicting Instructions 27
L2C Instructions Evicting Translations 0
L2C Translations Evicting Translations 1
L2C Data Evicting Translations 31
L2C Dense regions hint from L2: 0
PSCL5 TOTAL     ACCESS:        153  HIT:        153  MISS:          0  HIT %:        100  MISS %:          0   MPKI: 0
PSCL5 LOAD TRANSLATION ACCESS:        153  HIT:        153  MISS:          0  HIT %:        100  MISS %:          0   MPKI: 0
PSCL5 PREFETCH  REQUESTED:          0  ISSUED:          0  USEFUL:          0  USELESS:          0
PSCL5 USEFUL LOAD PREFETCHES:          0 PREFETCH ISSUED TO LOWER LEVEL:          0  ACCURACY: -nan
PSCL5 TIMELY PREFETCHES:          0 LATE PREFETCHES: 0 DROPPED PREFETCHES: 0
PSCL5 PREFETCHES SAME FILL-ORIGIN LEVEL: 0 DIFFERENT FILL-ORIGIN LEVEL: 0

PSCL4 TOTAL     ACCESS:        153  HIT:        153  MISS:          0  HIT %:        100  MISS %:          0   MPKI: 0
PSCL4 LOAD TRANSLATION ACCESS:        153  HIT:        153  MISS:          0  HIT %:        100  MISS %:          0   MPKI: 0
PSCL4 PREFETCH  REQUESTED:          0  ISSUED:          0  USEFUL:          0  USELESS:          0
PSCL4 USEFUL LOAD PREFETCHES:          0 PREFETCH ISSUED TO LOWER LEVEL:          0  ACCURACY: -nan
PSCL4 TIMELY PREFETCHES:          0 LATE PREFETCHES: 0 DROPPED PREFETCHES: 0
PSCL4 PREFETCHES SAME FILL-ORIGIN LEVEL: 0 DIFFERENT FILL-ORIGIN LEVEL: 0

PSCL3 TOTAL     ACCESS:        153  HIT:        153  MISS:          0  HIT %:        100  MISS %:          0   MPKI: 0
PSCL3 LOAD TRANSLATION ACCESS:        153  HIT:        153  MISS:          0  HIT %:        100  MISS %:          0   MPKI: 0
PSCL3 PREFETCH  REQUESTED:          0  ISSUED:          0  USEFUL:          0  USELESS:          0
PSCL3 USEFUL LOAD PREFETCHES:          0 PREFETCH ISSUED TO LOWER LEVEL:          0  ACCURACY: -nan
PSCL3 TIMELY PREFETCHES:          0 LATE PREFETCHES: 0 DROPPED PREFETCHES: 0
PSCL3 PREFETCHES SAME FILL-ORIGIN LEVEL: 0 DIFFERENT FILL-ORIGIN LEVEL: 0

PSCL2 TOTAL     ACCESS:        153  HIT:        152  MISS:          1  HIT %:    99.3464  MISS %:   0.653595   MPKI: 2e-05
PSCL2 LOAD TRANSLATION ACCESS:        153  HIT:        152  MISS:          1  HIT %:    99.3464  MISS %:   0.653595   MPKI: 2e-05
PSCL2 PREFETCH  REQUESTED:          0  ISSUED:          0  USEFUL:          0  USELESS:          0
PSCL2 USEFUL LOAD PREFETCHES:          0 PREFETCH ISSUED TO LOWER LEVEL:          0  ACCURACY: -nan
PSCL2 TIMELY PREFETCHES:          0 LATE PREFETCHES: 0 DROPPED PREFETCHES: 0
PSCL2 PREFETCHES SAME FILL-ORIGIN LEVEL: 0 DIFFERENT FILL-ORIGIN LEVEL: 0

LLC TOTAL     ACCESS:      16298  HIT:       8545  MISS:       7753  HIT %:    52.4297  MISS %:    47.5703   MPKI: 0.15506
LLC LOAD      ACCESS:       4196  HIT:       2315  MISS:       1881  HIT %:    55.1716  MISS %:    44.8284   MPKI: 0.03762
LLC RFO       ACCESS:        456  HIT:          1  MISS:        455  HIT %:   0.219298  MISS %:    99.7807   MPKI: 0.0091
LLC PREFETCH  ACCESS:      11149  HIT:       5759  MISS:       5390  HIT %:    51.6549  MISS %:    48.3451   MPKI: 0.1078
AGUS PREFETCH L1 MISS: 0
LLC WRITEBACK ACCESS:        465  HIT:        465  MISS:          0  HIT %:        100  MISS %:          0   MPKI: 0
LLC LOAD TRANSLATION ACCESS:         32  HIT:          5  MISS:         27  HIT %:     15.625  MISS %:     84.375   MPKI: 0.00054
LLC PREFETCH  REQUESTED:          0  ISSUED:          0  USEFUL:       1857  USELESS:          0
LLC USEFUL LOAD PREFETCHES:       1857 PREFETCH ISSUED TO LOWER LEVEL:       5390  ACCURACY: 34.4527
LLC TIMELY PREFETCHES:       1857 LATE PREFETCHES: 0 DROPPED PREFETCHES: 0
LLC PREFETCHES SAME FILL-ORIGIN LEVEL: 0 DIFFERENT FILL-ORIGIN LEVEL: 0
LLC AVERAGE MISS LATENCY: 98.7925 cycles
LLC RQ	ACCESS:       4684	FORWARD:          0	MERGED:          0	TO_CACHE:       4684
LLC WQ	ACCESS:        465	FORWARD:          0	MERGED:          0	TO_CACHE:        465
LLC PQ	ACCESS:      11149	FORWARD:          0	MERGED:          0	TO_CACHE:      11149

LLC Dense regions hint to LLC: 0

RAW hits: 111407
Loads Generated: 12141302
Loads sent to L1D: 12029895
Stores Generated: 3150752
Stores sent to L1D: 3150756
Major fault: 0 Minor fault: 474
Allocated PAGES: 474

stream: 
stream:times selected: 3821299
stream:pref_filled: 24769
stream:pref_useful: 10223
stream:pref_late: 34
stream:misses: 2054
stream:misses_by_poll: 0

CS: 
CS:times selected: 1423986
CS:pref_filled: 6801
CS:pref_useful: 4089
CS:pref_late: 353
CS:misses: 2720
CS:misses_by_poll: 10

CPLX: 
CPLX:times selected: 2396542
CPLX:pref_filled: 45310
CPLX:pref_useful: 19056
CPLX:pref_late: 214
CPLX:misses: 3202
CPLX:misses_by_poll: 47

NL_L1: 
NL:times selected: 2400
NL:pref_filled: 46
NL:pref_useful: 39
NL:pref_late: 0
NL:misses: 12
NL:misses_by_poll: 0

total selections: 7644227
total_filled: 33347
total_useful: 13190
total_late: 644
total_polluted: 57
total_misses_after_warmup: 8449
conflicts: 1322778

test: 874140

DRAM Statistics
 CHANNEL 0
 RQ ROW_BUFFER_HIT:       5715  ROW_BUFFER_MISS:       2038
 DBUS_CONGESTED:          0
 WQ ROW_BUFFER_HIT:          0  ROW_BUFFER_MISS:          0  FULL:          0

 AVG_CONGESTED_CYCLE: -
 All warmup complete: 2
Channel 0 Bank busy for read cycles: 0
Channel 0 Bank busy for write cycles: 0
Channel 0
Rank 0
0banks busy for read cycles: 56969882
0banks busy for write cycles: 0
1banks busy for read cycles: 328587
1banks busy for write cycles: 0
2banks busy for read cycles: 54553
2banks busy for write cycles: 0
3banks busy for read cycles: 15547
3banks busy for write cycles: 0
4banks busy for read cycles: 8814
4banks busy for write cycles: 0
5banks busy for read cycles: 3677
5banks busy for write cycles: 0
6banks busy for read cycles: 2742
6banks busy for write cycles: 0
7banks busy for read cycles: 2122
7banks busy for write cycles: 0
8banks busy for read cycles: 2772
8banks busy for write cycles: 0

CPU 0 Branch Prediction Accuracy: 88.47% MPKI: 4.83304 Average ROB Occupancy at Mispredict: 35.7674
Branch types
NOT_BRANCH: 47903889 95.8078%
BRANCH_DIRECT_JUMP: 36659 0.073318%
BRANCH_INDIRECT: 3046 0.006092%
BRANCH_CONDITIONAL: 1779789 3.55958%
BRANCH_DIRECT_CALL: 71241 0.142482%
BRANCH_INDIRECT_CALL: 66940 0.13388%
BRANCH_RETURN: 138182 0.276364%
BRANCH_OTHER: 0 0%

DRAM PAGES: 1048576
Allocated PAGES: 474
