
*** ChampSim Multicore Out-of-Order Simulator ***

Warmup Instructions: 50000000
Simulation Instructions: 50000000
Number of CPUs: 1
LLC sets: 2048
LLC ways: 16
Off-chip DRAM Size: 4096 MB Channels: 1 Width: 64-bit Data Rate: 6400 MT/s
CPU 0 runs ./traces/SPEC-CPU2017/625.x264_s-12B.champsimtrace.xz
.xz
CPU 0 Bimodal branch predictor
BTB has LRU replacement policy
ITLB has LRU replacement policy
DTLB has LRU replacement policy
STLB has LRU replacement policy
L1I has LRU replacement policy
L1D has LRU replacement policy
L2C has LRU replacement policy
LLC has LRU replacement policy
Heartbeat CPU 0 instructions: 10000001 cycles: 2777169 heartbeat IPC: 3.60079 cumulative IPC: 3.60079 (Simulation time: 0 hr 6 min 6 sec) 
Heartbeat CPU 0 instructions: 20000000 cycles: 5566084 heartbeat IPC: 3.58562 cumulative IPC: 3.59319 (Simulation time: 0 hr 12 min 29 sec) 
Heartbeat CPU 0 instructions: 30000001 cycles: 8351411 heartbeat IPC: 3.59024 cumulative IPC: 3.59221 (Simulation time: 0 hr 18 min 44 sec) 
Heartbeat CPU 0 instructions: 40000000 cycles: 11136862 heartbeat IPC: 3.59008 cumulative IPC: 3.59168 (Simulation time: 0 hr 26 min 44 sec) 
Heartbeat CPU 0 instructions: 50000001 cycles: 13924907 heartbeat IPC: 3.58674 cumulative IPC: 3.59069 (Simulation time: 0 hr 34 min 16 sec) 

Warmup complete CPU 0 instructions: 50000001 cycles: 13924907 (Simulation time: 0 hr 34 min 16 sec) 

Heartbeat CPU 0 instructions: 60000000 cycles: 25234889 heartbeat IPC: 0.884175 cumulative IPC: 0.884175 (Simulation time: 0 hr 37 min 31 sec) 
Heartbeat CPU 0 instructions: 70000001 cycles: 36788916 heartbeat IPC: 0.865499 cumulative IPC: 0.874737 (Simulation time: 0 hr 40 min 48 sec) 
Heartbeat CPU 0 instructions: 80000000 cycles: 48256537 heartbeat IPC: 0.87202 cumulative IPC: 0.87383 (Simulation time: 0 hr 44 min 28 sec) 
Heartbeat CPU 0 instructions: 90000002 cycles: 59754074 heartbeat IPC: 0.869752 cumulative IPC: 0.872807 (Simulation time: 0 hr 48 min 33 sec) 
Heartbeat CPU 0 instructions: 100000000 cycles: 71311661 heartbeat IPC: 0.865232 cumulative IPC: 0.871281 (Simulation time: 0 hr 52 min 16 sec) 
Finished CPU 0 instructions: 50000001 cycles: 57386762 cumulative IPC: 0.871281 (Simulation time: 0 hr 52 min 16 sec) 

ChampSim completed all CPUs

Region of Interest Statistics

CPU 0 cumulative IPC: 0.871281 instructions: 50000001 cycles: 57386762
ITLB TOTAL     ACCESS:    7170721  HIT:    7170720  MISS:          1  HIT %:        100  MISS %: 1.39456e-05   MPKI: 2e-05
ITLB LOAD TRANSLATION ACCESS:    7170721  HIT:    7170720  MISS:          1  HIT %:        100  MISS %: 1.39456e-05   MPKI: 2e-05
ITLB PREFETCH  REQUESTED:          0  ISSUED:          0  USEFUL:          0  USELESS:          0
ITLB USEFUL LOAD PREFETCHES:          0 PREFETCH ISSUED TO LOWER LEVEL:          0  ACCURACY: -nan
ITLB TIMELY PREFETCHES:          0 LATE PREFETCHES: 0 DROPPED PREFETCHES: 0
ITLB PREFETCHES SAME FILL-ORIGIN LEVEL: 0 DIFFERENT FILL-ORIGIN LEVEL: 0
ITLB AVERAGE MISS LATENCY: 150 cycles
ITLB RQ	ACCESS:    8838333	FORWARD:          0	MERGED:    1667612	TO_CACHE:    7170721

DTLB TOTAL     ACCESS:    6344239  HIT:    6333628  MISS:      10611  HIT %:    99.8327  MISS %:   0.167254   MPKI: 0.21222
DTLB LOAD TRANSLATION ACCESS:    6344239  HIT:    6333628  MISS:      10611  HIT %:    99.8327  MISS %:   0.167254   MPKI: 0.21222
DTLB PREFETCH  REQUESTED:          0  ISSUED:          0  USEFUL:          0  USELESS:          0
DTLB USEFUL LOAD PREFETCHES:          0 PREFETCH ISSUED TO LOWER LEVEL:          0  ACCURACY: -nan
DTLB TIMELY PREFETCHES:          0 LATE PREFETCHES: 0 DROPPED PREFETCHES: 0
DTLB PREFETCHES SAME FILL-ORIGIN LEVEL: 0 DIFFERENT FILL-ORIGIN LEVEL: 0
DTLB AVERAGE MISS LATENCY: 11.3316 cycles
DTLB RQ	ACCESS:    7655876	FORWARD:          0	MERGED:    1310216	TO_CACHE:    6345660

STLB TOTAL     ACCESS:     941448  HIT:     941295  MISS:        153  HIT %:    99.9837  MISS %:  0.0162516   MPKI: 0.00306
STLB LOAD TRANSLATION ACCESS:      10612  HIT:      10459  MISS:        153  HIT %:    98.5582  MISS %:    1.44176   MPKI: 0.00306
STLB TRANSLATION FROM L1D PREFETCHER ACCESS:     930836  HIT:     930836  MISS:          0  HIT %:        100  MISS %:          0   MPKI: 0
STLB PREFETCH  REQUESTED:          0  ISSUED:          0  USEFUL:          0  USELESS:          0
STLB USEFUL LOAD PREFETCHES:          0 PREFETCH ISSUED TO LOWER LEVEL:          0  ACCURACY: -nan
STLB TIMELY PREFETCHES:          0 LATE PREFETCHES: 0 DROPPED PREFETCHES: 0
STLB PREFETCHES SAME FILL-ORIGIN LEVEL: 0 DIFFERENT FILL-ORIGIN LEVEL: 0
STLB AVERAGE MISS LATENCY: 161.078 cycles
STLB RQ	ACCESS:    1582116	FORWARD:          0	MERGED:     640668	TO_CACHE:     941448

STLB Hit, L1D data hit: 0
STLB Hit, L2C data hit: 0
STLB Hit, LLC data hit: 0
STLB Hit, LLC data miss: 0
STLB STLB hints to L2: 0
L1D TOTAL     ACCESS:    9224196  HIT:    9182774  MISS:      41422  HIT %:    99.5509  MISS %:   0.449058   MPKI: 0.82844
L1D LOAD      ACCESS:    4505630  HIT:    4500009  MISS:       5621  HIT %:    99.8752  MISS %:   0.124755   MPKI: 0.11242
L1D RFO       ACCESS:    3148429  HIT:    3147945  MISS:        484  HIT %:    99.9846  MISS %:  0.0153727   MPKI: 0.00968
L1D PREFETCH  ACCESS:    1570137  HIT:    1534820  MISS:      35317  HIT %:    97.7507  MISS %:    2.24929   MPKI: 0.70634
AGUS PREFETCH L1 MISS: 0
L1D PREFETCH  REQUESTED:    3171851  ISSUED:    3143358  USEFUL:      13913  USELESS:      21346
L1D USEFUL LOAD PREFETCHES:      13913 PREFETCH ISSUED TO LOWER LEVEL:      36063  ACCURACY: 38.5797
L1D TIMELY PREFETCHES:      13913 LATE PREFETCHES: 746 DROPPED PREFETCHES: 0
L1D PREFETCHES SAME FILL-ORIGIN LEVEL: 36063 DIFFERENT FILL-ORIGIN LEVEL: 0
L1D AVERAGE MISS LATENCY: 44.9121 cycles
L1D RQ	ACCESS:   12029891	FORWARD:          0	MERGED:    7503520	TO_CACHE:    4507362
L1D WQ	ACCESS:    3150756	FORWARD:      19359	MERGED:       2242	TO_CACHE:    3148514
L1D PQ	ACCESS:    1571854	FORWARD:          0	MERGED:          0	TO_CACHE:    1571504

L1D UNIQUE REGIONS ACCESSED: 0
L1D REGIONS CONFLICTS: 0
L1D Cross Page Prefetch Requests: 517985
L1D Same Page Prefetch Requests: 3729758
L1D ROI Sum of L1D PQ occupancy: 21465276
L1D PREFETCHES PUSHED FROM L2C: 0
L1I TOTAL     ACCESS:    8838323  HIT:    8838293  MISS:         30  HIT %:    99.9997  MISS %: 0.000339431   MPKI: 0.0006
L1I LOAD      ACCESS:    8838323  HIT:    8838293  MISS:         30  HIT %:    99.9997  MISS %: 0.000339431   MPKI: 0.0006
L1I PREFETCH  REQUESTED:          0  ISSUED:          0  USEFUL:          0  USELESS:          0
L1I USEFUL LOAD PREFETCHES:          0 PREFETCH ISSUED TO LOWER LEVEL:          0  ACCURACY: -nan
L1I TIMELY PREFETCHES:          0 LATE PREFETCHES: 0 DROPPED PREFETCHES: 0
L1I PREFETCHES SAME FILL-ORIGIN LEVEL: 0 DIFFERENT FILL-ORIGIN LEVEL: 0
L1I AVERAGE MISS LATENCY: 179.667 cycles
L1I RQ	ACCESS:   12158883	FORWARD:          0	MERGED:    3320550	TO_CACHE:    8838333

BTB TOTAL     ACCESS:    1864249  HIT:    1740734  MISS:     123515  HIT %:    93.3745  MISS %:    6.62546   MPKI: 2.4703
BTB BRANCH_DIRECT_JUMP	ACCESS:      36659  HIT:      36640  MISS:         19
BTB BRANCH_INDIRECT	ACCESS:       3046  HIT:       3045  MISS:          1
BTB BRANCH_CONDITIONAL	ACCESS:    1548181  HIT:    1548108  MISS:         73
BTB BRANCH_DIRECT_CALL	ACCESS:      71241  HIT:      71231  MISS:         10
BTB BRANCH_INDIRECT_CALL	ACCESS:      66940  HIT:      66909  MISS:         31
BTB BRANCH_RETURN	ACCESS:     138182  HIT:      14801  MISS:     123381
BTB BRANCH_OTHER ACCESS:          0  HIT:          0  MISS:          0

L2C TOTAL     ACCESS:      42122  HIT:      26381  MISS:      15741  HIT %:      62.63  MISS %:      37.37   MPKI: 0.31482
L2C LOAD      ACCESS:       4905  HIT:       1056  MISS:       3849  HIT %:    21.5291  MISS %:    78.4709   MPKI: 0.07698
L2C DATA LOAD MPKI: 0.07638
L2C INSTRUCTION LOAD MPKI: 0.0006
L2C RFO       ACCESS:        484  HIT:         28  MISS:        456  HIT %:    5.78512  MISS %:    94.2149   MPKI: 0.00912
L2C PREFETCH  ACCESS:      36063  HIT:      24672  MISS:      11391  HIT %:    68.4136  MISS %:    31.5864   MPKI: 0.22782
AGUS PREFETCH L1 MISS: 0
L2C DATA PREFETCH MPKI: 0.22782
L2C INSTRUCTION PREFETCH MPKI: 0
L2C WRITEBACK ACCESS:        517  HIT:        504  MISS:         13  HIT %:    97.4855  MISS %:    2.51451   MPKI: 0.00026
L2C LOAD TRANSLATION ACCESS:        153  HIT:        121  MISS:         32  HIT %:     79.085  MISS %:     20.915   MPKI: 0.00064
L2C PREFETCH  REQUESTED:          0  ISSUED:          0  USEFUL:        668  USELESS:      10961
L2C USEFUL LOAD PREFETCHES:        668 PREFETCH ISSUED TO LOWER LEVEL:      11391  ACCURACY: 5.86428
L2C TIMELY PREFETCHES:        668 LATE PREFETCHES: 0 DROPPED PREFETCHES: 0
L2C PREFETCHES SAME FILL-ORIGIN LEVEL: 0 DIFFERENT FILL-ORIGIN LEVEL: 0
L2C AVERAGE MISS LATENCY: 78.6668 cycles
L2C RQ	ACCESS:       5542	FORWARD:          0	MERGED:          0	TO_CACHE:       5542
L2C WQ	ACCESS:        517	FORWARD:          0	MERGED:          0	TO_CACHE:        517
L2C PQ	ACCESS:      36063	FORWARD:          0	MERGED:          0	TO_CACHE:      36063

L2C Instructions Evicting Data 30
L2C Translations Evicting Data 31
L2C Data Evicting Data 15607
L2C Instructions Evicting Instructions 0
L2C Translations Evicting Instructions 0
L2C Data Evicting Instructions 27
L2C Instructions Evicting Translations 0
L2C Translations Evicting Translations 1
L2C Data Evicting Translations 32
L2C Dense regions hint from L2: 0
PSCL5 TOTAL     ACCESS:        153  HIT:        153  MISS:          0  HIT %:        100  MISS %:          0   MPKI: 0
PSCL5 LOAD TRANSLATION ACCESS:        153  HIT:        153  MISS:          0  HIT %:        100  MISS %:          0   MPKI: 0
PSCL5 PREFETCH  REQUESTED:          0  ISSUED:          0  USEFUL:          0  USELESS:          0
PSCL5 USEFUL LOAD PREFETCHES:          0 PREFETCH ISSUED TO LOWER LEVEL:          0  ACCURACY: -nan
PSCL5 TIMELY PREFETCHES:          0 LATE PREFETCHES: 0 DROPPED PREFETCHES: 0
PSCL5 PREFETCHES SAME FILL-ORIGIN LEVEL: 0 DIFFERENT FILL-ORIGIN LEVEL: 0

PSCL4 TOTAL     ACCESS:        153  HIT:        153  MISS:          0  HIT %:        100  MISS %:          0   MPKI: 0
PSCL4 LOAD TRANSLATION ACCESS:        153  HIT:        153  MISS:          0  HIT %:        100  MISS %:          0   MPKI: 0
PSCL4 PREFETCH  REQUESTED:          0  ISSUED:          0  USEFUL:          0  USELESS:          0
PSCL4 USEFUL LOAD PREFETCHES:          0 PREFETCH ISSUED TO LOWER LEVEL:          0  ACCURACY: -nan
PSCL4 TIMELY PREFETCHES:          0 LATE PREFETCHES: 0 DROPPED PREFETCHES: 0
PSCL4 PREFETCHES SAME FILL-ORIGIN LEVEL: 0 DIFFERENT FILL-ORIGIN LEVEL: 0

PSCL3 TOTAL     ACCESS:        153  HIT:        153  MISS:          0  HIT %:        100  MISS %:          0   MPKI: 0
PSCL3 LOAD TRANSLATION ACCESS:        153  HIT:        153  MISS:          0  HIT %:        100  MISS %:          0   MPKI: 0
PSCL3 PREFETCH  REQUESTED:          0  ISSUED:          0  USEFUL:          0  USELESS:          0
PSCL3 USEFUL LOAD PREFETCHES:          0 PREFETCH ISSUED TO LOWER LEVEL:          0  ACCURACY: -nan
PSCL3 TIMELY PREFETCHES:          0 LATE PREFETCHES: 0 DROPPED PREFETCHES: 0
PSCL3 PREFETCHES SAME FILL-ORIGIN LEVEL: 0 DIFFERENT FILL-ORIGIN LEVEL: 0

PSCL2 TOTAL     ACCESS:        153  HIT:        152  MISS:          1  HIT %:    99.3464  MISS %:   0.653595   MPKI: 2e-05
PSCL2 LOAD TRANSLATION ACCESS:        153  HIT:        152  MISS:          1  HIT %:    99.3464  MISS %:   0.653595   MPKI: 2e-05
PSCL2 PREFETCH  REQUESTED:          0  ISSUED:          0  USEFUL:          0  USELESS:          0
PSCL2 USEFUL LOAD PREFETCHES:          0 PREFETCH ISSUED TO LOWER LEVEL:          0  ACCURACY: -nan
PSCL2 TIMELY PREFETCHES:          0 LATE PREFETCHES: 0 DROPPED PREFETCHES: 0
PSCL2 PREFETCHES SAME FILL-ORIGIN LEVEL: 0 DIFFERENT FILL-ORIGIN LEVEL: 0

LLC TOTAL     ACCESS:      16194  HIT:       8529  MISS:       7665  HIT %:    52.6677  MISS %:    47.3323   MPKI: 0.1533
LLC LOAD      ACCESS:       3849  HIT:       1940  MISS:       1909  HIT %:    50.4027  MISS %:    49.5973   MPKI: 0.03818
LLC RFO       ACCESS:        456  HIT:          1  MISS:        455  HIT %:   0.219298  MISS %:    99.7807   MPKI: 0.0091
LLC PREFETCH  ACCESS:      11391  HIT:       6117  MISS:       5274  HIT %:    53.7003  MISS %:    46.2997   MPKI: 0.10548
AGUS PREFETCH L1 MISS: 0
LLC WRITEBACK ACCESS:        466  HIT:        466  MISS:          0  HIT %:        100  MISS %:          0   MPKI: 0
LLC LOAD TRANSLATION ACCESS:         32  HIT:          5  MISS:         27  HIT %:     15.625  MISS %:     84.375   MPKI: 0.00054
LLC PREFETCH  REQUESTED:          0  ISSUED:          0  USEFUL:       1594  USELESS:          0
LLC USEFUL LOAD PREFETCHES:       1594 PREFETCH ISSUED TO LOWER LEVEL:       5274  ACCURACY: 30.2237
LLC TIMELY PREFETCHES:       1594 LATE PREFETCHES: 0 DROPPED PREFETCHES: 0
LLC PREFETCHES SAME FILL-ORIGIN LEVEL: 0 DIFFERENT FILL-ORIGIN LEVEL: 0
LLC AVERAGE MISS LATENCY: 99.7836 cycles
LLC RQ	ACCESS:       4337	FORWARD:          0	MERGED:          0	TO_CACHE:       4337
LLC WQ	ACCESS:        466	FORWARD:          0	MERGED:          0	TO_CACHE:        466
LLC PQ	ACCESS:      11391	FORWARD:          0	MERGED:          0	TO_CACHE:      11391

LLC Dense regions hint to LLC: 0

RAW hits: 111411
Loads Generated: 12141302
Loads sent to L1D: 12029891
Stores Generated: 3150752
Stores sent to L1D: 3150756
Major fault: 0 Minor fault: 474
Allocated PAGES: 474

stream: 
stream:times selected: 3821307
stream:pref_reqs: 7695986
stream:pref_reqs_filtered_out: 5532521
stream:pref_filled: 24834
stream:pref_useful: 10094
stream:pref_late: 32
stream:misses: 726
stream:misses_by_poll: 0

CS: 
CS:times selected: 1457934
CS:pref_reqs: 3552417
CS:pref_reqs_filtered_out: 2180011
CS:pref_filled: 7166
CS:pref_useful: 4433
CS:pref_late: 468
CS:misses: 1064
CS:misses_by_poll: 10

CPLX: 
CPLX:times selected: 2362623
CPLX:pref_reqs: 4072151
CPLX:pref_reqs_filtered_out: 3010008
CPLX:pref_filled: 43941
CPLX:pref_useful: 17872
CPLX:pref_late: 145
CPLX:misses: 958
CPLX:misses_by_poll: 31

ISB: 
ISB:total access:7381851
ISB:times selected:5837447
ISB:canary counter:0
ISB:pref_reqs: 5915832
ISB:pref_reqs_filtered_out: 4980537
ISB:pref_filled: 5904
ISB:pref_useful: 2802
ISB:pref_late: 194
ISB:misses: 4722
ISB:misses_by_poll: 8
ISB:Stream end: 5800311
ISB:No Prediction: 1544404 20.9216
ISB:No translation: 1381621235
ISB:Predictions: 835905 11.3238

NL_L1: 
NL:times selected: 1221
NL:pref_reqs: 1221
NL:pref_reqs_filtered_out: 470
NL:pref_filled: 43
NL:pref_useful: 39
NL:pref_late: 0
NL:misses: 6
NL:misses_by_poll: 0

Coverage: 71.2245
total selections: 13480532
total_filled: 35317
total_useful: 13913
total_late: 896
total_polluted: 49
total_misses_after_warmup: 7353
conflicts: 1322742

test: 0
ISB Prefetcher final stats
Prefetcher final stats
Training Unit Size: 729
Addr table size: 20884 34200
Triggers: 7381851
Structural address exists: 5837447 79.0784
No Prediction: 1544404 20.9216
Prefetches issued: 835905 11.3238
Stream end: 5800311
No translation: 1381621235
%Stream divergence: 300932 4.07665
Stream divergence -- new stream: 0
A: 0
B: 0
C: 3821310
D: 3821310
E: 3821310
F: 0
G: 0

DRAM Statistics
 CHANNEL 0
 RQ ROW_BUFFER_HIT:       5572  ROW_BUFFER_MISS:       2093
 DBUS_CONGESTED:          0
 WQ ROW_BUFFER_HIT:          0  ROW_BUFFER_MISS:          0  FULL:          0

 AVG_CONGESTED_CYCLE: -
 All warmup complete: 2
Channel 0 Bank busy for read cycles: 0
Channel 0 Bank busy for write cycles: 0
Channel 0
Rank 0
0banks busy for read cycles: 56967820
0banks busy for write cycles: 0
1banks busy for read cycles: 328187
1banks busy for write cycles: 0
2banks busy for read cycles: 55004
2banks busy for write cycles: 0
3banks busy for read cycles: 15519
3banks busy for write cycles: 0
4banks busy for read cycles: 8638
4banks busy for write cycles: 0
5banks busy for read cycles: 4203
5banks busy for write cycles: 0
6banks busy for read cycles: 2333
6banks busy for write cycles: 0
7banks busy for read cycles: 2229
7banks busy for write cycles: 0
8banks busy for read cycles: 2830
8banks busy for write cycles: 0

CPU 0 Branch Prediction Accuracy: 88.47% MPKI: 4.83304 Average ROB Occupancy at Mispredict: 35.7594
Branch types
NOT_BRANCH: 47903889 95.8078%
BRANCH_DIRECT_JUMP: 36659 0.073318%
BRANCH_INDIRECT: 3046 0.006092%
BRANCH_CONDITIONAL: 1779789 3.55958%
BRANCH_DIRECT_CALL: 71241 0.142482%
BRANCH_INDIRECT_CALL: 66940 0.13388%
BRANCH_RETURN: 138182 0.276364%
BRANCH_OTHER: 0 0%

DRAM PAGES: 1048576
Allocated PAGES: 474
