
*** ChampSim Multicore Out-of-Order Simulator ***

Warmup Instructions: 50000000
Simulation Instructions: 50000000
Number of CPUs: 1
LLC sets: 2048
LLC ways: 16
Off-chip DRAM Size: 4096 MB Channels: 1 Width: 64-bit Data Rate: 6400 MT/s
CPU 0 runs ./traces/SPEC-CPU2017/638.imagick_s-10316B.champsimtrace.xz
.xz
CPU 0 Bimodal branch predictor
BTB has LRU replacement policy
ITLB has LRU replacement policy
DTLB has LRU replacement policy
STLB has LRU replacement policy
L1I has LRU replacement policy
L1D has LRU replacement policy
L2C has LRU replacement policy
LLC has LRU replacement policy
Heartbeat CPU 0 instructions: 10000000 cycles: 2592048 heartbeat IPC: 3.85795 cumulative IPC: 3.85795 (Simulation time: 0 hr 7 min 9 sec) 
Heartbeat CPU 0 instructions: 20000000 cycles: 5183641 heartbeat IPC: 3.85863 cumulative IPC: 3.85829 (Simulation time: 0 hr 15 min 39 sec) 
Heartbeat CPU 0 instructions: 30000002 cycles: 7775054 heartbeat IPC: 3.8589 cumulative IPC: 3.85849 (Simulation time: 0 hr 24 min 45 sec) 
Heartbeat CPU 0 instructions: 40000000 cycles: 10366471 heartbeat IPC: 3.85889 cumulative IPC: 3.85859 (Simulation time: 0 hr 33 min 26 sec) 
Heartbeat CPU 0 instructions: 50000003 cycles: 12957908 heartbeat IPC: 3.85886 cumulative IPC: 3.85865 (Simulation time: 0 hr 41 min 56 sec) 

Warmup complete CPU 0 instructions: 50000003 cycles: 12957908 (Simulation time: 0 hr 41 min 56 sec) 

Heartbeat CPU 0 instructions: 60000000 cycles: 20268440 heartbeat IPC: 1.36789 cumulative IPC: 1.36789 (Simulation time: 0 hr 45 min 4 sec) 
Heartbeat CPU 0 instructions: 70000000 cycles: 27578314 heartbeat IPC: 1.36801 cumulative IPC: 1.36795 (Simulation time: 0 hr 47 min 59 sec) 
Heartbeat CPU 0 instructions: 80000000 cycles: 34888488 heartbeat IPC: 1.36796 cumulative IPC: 1.36795 (Simulation time: 0 hr 50 min 59 sec) 
Heartbeat CPU 0 instructions: 90000000 cycles: 42198630 heartbeat IPC: 1.36796 cumulative IPC: 1.36796 (Simulation time: 0 hr 54 min 9 sec) 
Heartbeat CPU 0 instructions: 100000000 cycles: 49508649 heartbeat IPC: 1.36799 cumulative IPC: 1.36796 (Simulation time: 0 hr 56 min 26 sec) 
Finished CPU 0 instructions: 50000000 cycles: 36550758 cumulative IPC: 1.36796 (Simulation time: 0 hr 56 min 26 sec) 

ChampSim completed all CPUs

Region of Interest Statistics

CPU 0 cumulative IPC: 1.36796 instructions: 50000000 cycles: 36550758
ITLB TOTAL     ACCESS:    6893140  HIT:    6893140  MISS:          0  HIT %:        100  MISS %:          0   MPKI: 0
ITLB LOAD TRANSLATION ACCESS:    6893140  HIT:    6893140  MISS:          0  HIT %:        100  MISS %:          0   MPKI: 0
ITLB PREFETCH  REQUESTED:          0  ISSUED:          0  USEFUL:          0  USELESS:          0
ITLB USEFUL LOAD PREFETCHES:          0 PREFETCH ISSUED TO LOWER LEVEL:          0  ACCURACY: -nan
ITLB TIMELY PREFETCHES:          0 LATE PREFETCHES: 0 DROPPED PREFETCHES: 0
ITLB PREFETCHES SAME FILL-ORIGIN LEVEL: 0 DIFFERENT FILL-ORIGIN LEVEL: 0
ITLB AVERAGE MISS LATENCY: -nan cycles
ITLB RQ	ACCESS:    8627436	FORWARD:          0	MERGED:    1734296	TO_CACHE:    6893140

DTLB TOTAL     ACCESS:    3747172  HIT:    3723954  MISS:      23218  HIT %:    99.3804  MISS %:   0.619614   MPKI: 0.46436
DTLB LOAD TRANSLATION ACCESS:    3747172  HIT:    3723954  MISS:      23218  HIT %:    99.3804  MISS %:   0.619614   MPKI: 0.46436
DTLB PREFETCH  REQUESTED:          0  ISSUED:          0  USEFUL:          0  USELESS:          0
DTLB USEFUL LOAD PREFETCHES:          0 PREFETCH ISSUED TO LOWER LEVEL:          0  ACCURACY: -nan
DTLB TIMELY PREFETCHES:          0 LATE PREFETCHES: 0 DROPPED PREFETCHES: 0
DTLB PREFETCHES SAME FILL-ORIGIN LEVEL: 0 DIFFERENT FILL-ORIGIN LEVEL: 0
DTLB AVERAGE MISS LATENCY: 9.22474 cycles
DTLB RQ	ACCESS:    3764511	FORWARD:          0	MERGED:      17180	TO_CACHE:    3747331

STLB TOTAL     ACCESS:     575263  HIT:     575232  MISS:         31  HIT %:    99.9946  MISS %: 0.00538884   MPKI: 0.00062
STLB LOAD TRANSLATION ACCESS:      23218  HIT:      23187  MISS:         31  HIT %:    99.8665  MISS %:   0.133517   MPKI: 0.00062
STLB TRANSLATION FROM L1D PREFETCHER ACCESS:     552045  HIT:     552045  MISS:          0  HIT %:        100  MISS %:          0   MPKI: 0
STLB PREFETCH  REQUESTED:          0  ISSUED:          0  USEFUL:          0  USELESS:          0
STLB USEFUL LOAD PREFETCHES:          0 PREFETCH ISSUED TO LOWER LEVEL:          0  ACCURACY: -nan
STLB TIMELY PREFETCHES:          0 LATE PREFETCHES: 0 DROPPED PREFETCHES: 0
STLB PREFETCHES SAME FILL-ORIGIN LEVEL: 0 DIFFERENT FILL-ORIGIN LEVEL: 0
STLB AVERAGE MISS LATENCY: 157.129 cycles
STLB RQ	ACCESS:     814073	FORWARD:          0	MERGED:     238810	TO_CACHE:     575263

STLB Hit, L1D data hit: 0
STLB Hit, L2C data hit: 0
STLB Hit, LLC data hit: 0
STLB Hit, LLC data miss: 0
STLB STLB hints to L2: 0
L1D TOTAL     ACCESS:    4544005  HIT:    3958264  MISS:     585741  HIT %:    87.1096  MISS %:    12.8904   MPKI: 11.7148
L1D LOAD      ACCESS:    3752666  HIT:    3731751  MISS:      20915  HIT %:    99.4427  MISS %:   0.557337   MPKI: 0.4183
L1D RFO       ACCESS:       2283  HIT:       1986  MISS:        297  HIT %:    86.9908  MISS %:    13.0092   MPKI: 0.00594
L1D PREFETCH  ACCESS:     789056  HIT:     224527  MISS:     564529  HIT %:    28.4551  MISS %:    71.5449   MPKI: 11.2906
AGUS PREFETCH L1 MISS: 0
L1D PREFETCH  REQUESTED:    1604880  ISSUED:    1581710  USEFUL:     423786  USELESS:     140785
L1D USEFUL LOAD PREFETCHES:     423786 PREFETCH ISSUED TO LOWER LEVEL:     564840  ACCURACY: 75.0276
L1D TIMELY PREFETCHES:     423786 LATE PREFETCHES: 310 DROPPED PREFETCHES: 0
L1D PREFETCHES SAME FILL-ORIGIN LEVEL: 564840 DIFFERENT FILL-ORIGIN LEVEL: 0
L1D AVERAGE MISS LATENCY: 16.0904 cycles
L1D RQ	ACCESS:    8628487	FORWARD:          0	MERGED:    4866323	TO_CACHE:    3762107
L1D WQ	ACCESS:       2520	FORWARD:         57	MERGED:        116	TO_CACHE:       2404
L1D PQ	ACCESS:     790855	FORWARD:          0	MERGED:          0	TO_CACHE:     790855

L1D UNIQUE REGIONS ACCESSED: 0
L1D REGIONS CONFLICTS: 0
L1D Cross Page Prefetch Requests: 458129
L1D Same Page Prefetch Requests: 1211176
L1D ROI Sum of L1D PQ occupancy: 11080834
L1D PREFETCHES PUSHED FROM L2C: 0
L1I TOTAL     ACCESS:    8627434  HIT:    8627434  MISS:          0  HIT %:        100  MISS %:          0   MPKI: 0
L1I LOAD      ACCESS:    8627434  HIT:    8627434  MISS:          0  HIT %:        100  MISS %:          0   MPKI: 0
L1I PREFETCH  REQUESTED:          0  ISSUED:          0  USEFUL:          0  USELESS:          0
L1I USEFUL LOAD PREFETCHES:          0 PREFETCH ISSUED TO LOWER LEVEL:          0  ACCURACY: -nan
L1I TIMELY PREFETCHES:          0 LATE PREFETCHES: 0 DROPPED PREFETCHES: 0
L1I PREFETCHES SAME FILL-ORIGIN LEVEL: 0 DIFFERENT FILL-ORIGIN LEVEL: 0
L1I AVERAGE MISS LATENCY: -nan cycles
L1I RQ	ACCESS:   13786421	FORWARD:          0	MERGED:    5158985	TO_CACHE:    8627436

BTB TOTAL     ACCESS:    3455324  HIT:    3455300  MISS:         24  HIT %:    99.9993  MISS %: 0.00069458   MPKI: 0.00048
BTB BRANCH_DIRECT_JUMP	ACCESS:        281  HIT:        278  MISS:          3
BTB BRANCH_INDIRECT	ACCESS:          0  HIT:          0  MISS:          0
BTB BRANCH_CONDITIONAL	ACCESS:    3455043  HIT:    3455022  MISS:         21
BTB BRANCH_DIRECT_CALL	ACCESS:          0  HIT:          0  MISS:          0
BTB BRANCH_INDIRECT_CALL	ACCESS:          0  HIT:          0  MISS:          0
BTB BRANCH_RETURN	ACCESS:          0  HIT:          0  MISS:          0
BTB BRANCH_OTHER ACCESS:          0  HIT:          0  MISS:          0

L2C TOTAL     ACCESS:     586490  HIT:     583822  MISS:       2668  HIT %:    99.5451  MISS %:    0.45491   MPKI: 0.05336
L2C LOAD      ACCESS:      20605  HIT:      20559  MISS:         46  HIT %:    99.7768  MISS %:   0.223247   MPKI: 0.00092
L2C DATA LOAD MPKI: 0.00092
L2C INSTRUCTION LOAD MPKI: 0
L2C RFO       ACCESS:        297  HIT:        281  MISS:         16  HIT %:    94.6128  MISS %:    5.38721   MPKI: 0.00032
L2C PREFETCH  ACCESS:     564840  HIT:     562251  MISS:       2589  HIT %:    99.5416  MISS %:    0.45836   MPKI: 0.05178
AGUS PREFETCH L1 MISS: 0
L2C DATA PREFETCH MPKI: 0.05178
L2C INSTRUCTION PREFETCH MPKI: 0
L2C WRITEBACK ACCESS:        717  HIT:        717  MISS:          0  HIT %:        100  MISS %:          0   MPKI: 0
L2C LOAD TRANSLATION ACCESS:         31  HIT:         14  MISS:         17  HIT %:    45.1613  MISS %:    54.8387   MPKI: 0.00034
L2C PREFETCH  REQUESTED:          0  ISSUED:          0  USEFUL:       1982  USELESS:        552
L2C USEFUL LOAD PREFETCHES:       1982 PREFETCH ISSUED TO LOWER LEVEL:       2589  ACCURACY: 76.5547
L2C TIMELY PREFETCHES:       1982 LATE PREFETCHES: 0 DROPPED PREFETCHES: 0
L2C PREFETCHES SAME FILL-ORIGIN LEVEL: 0 DIFFERENT FILL-ORIGIN LEVEL: 0
L2C AVERAGE MISS LATENCY: 171.992 cycles
L2C RQ	ACCESS:      20933	FORWARD:          0	MERGED:          0	TO_CACHE:      20933
L2C WQ	ACCESS:        717	FORWARD:          0	MERGED:          0	TO_CACHE:        717
L2C PQ	ACCESS:     564840	FORWARD:          0	MERGED:          0	TO_CACHE:     564840

L2C Instructions Evicting Data 0
L2C Translations Evicting Data 15
L2C Data Evicting Data 1291
L2C Instructions Evicting Instructions 0
L2C Translations Evicting Instructions 0
L2C Data Evicting Instructions 13
L2C Instructions Evicting Translations 0
L2C Translations Evicting Translations 0
L2C Data Evicting Translations 59
L2C Dense regions hint from L2: 0
PSCL5 TOTAL     ACCESS:         31  HIT:         31  MISS:          0  HIT %:        100  MISS %:          0   MPKI: 0
PSCL5 LOAD TRANSLATION ACCESS:         31  HIT:         31  MISS:          0  HIT %:        100  MISS %:          0   MPKI: 0
PSCL5 PREFETCH  REQUESTED:          0  ISSUED:          0  USEFUL:          0  USELESS:          0
PSCL5 USEFUL LOAD PREFETCHES:          0 PREFETCH ISSUED TO LOWER LEVEL:          0  ACCURACY: -nan
PSCL5 TIMELY PREFETCHES:          0 LATE PREFETCHES: 0 DROPPED PREFETCHES: 0
PSCL5 PREFETCHES SAME FILL-ORIGIN LEVEL: 0 DIFFERENT FILL-ORIGIN LEVEL: 0

PSCL4 TOTAL     ACCESS:         31  HIT:         31  MISS:          0  HIT %:        100  MISS %:          0   MPKI: 0
PSCL4 LOAD TRANSLATION ACCESS:         31  HIT:         31  MISS:          0  HIT %:        100  MISS %:          0   MPKI: 0
PSCL4 PREFETCH  REQUESTED:          0  ISSUED:          0  USEFUL:          0  USELESS:          0
PSCL4 USEFUL LOAD PREFETCHES:          0 PREFETCH ISSUED TO LOWER LEVEL:          0  ACCURACY: -nan
PSCL4 TIMELY PREFETCHES:          0 LATE PREFETCHES: 0 DROPPED PREFETCHES: 0
PSCL4 PREFETCHES SAME FILL-ORIGIN LEVEL: 0 DIFFERENT FILL-ORIGIN LEVEL: 0

PSCL3 TOTAL     ACCESS:         31  HIT:         31  MISS:          0  HIT %:        100  MISS %:          0   MPKI: 0
PSCL3 LOAD TRANSLATION ACCESS:         31  HIT:         31  MISS:          0  HIT %:        100  MISS %:          0   MPKI: 0
PSCL3 PREFETCH  REQUESTED:          0  ISSUED:          0  USEFUL:          0  USELESS:          0
PSCL3 USEFUL LOAD PREFETCHES:          0 PREFETCH ISSUED TO LOWER LEVEL:          0  ACCURACY: -nan
PSCL3 TIMELY PREFETCHES:          0 LATE PREFETCHES: 0 DROPPED PREFETCHES: 0
PSCL3 PREFETCHES SAME FILL-ORIGIN LEVEL: 0 DIFFERENT FILL-ORIGIN LEVEL: 0

PSCL2 TOTAL     ACCESS:         31  HIT:         31  MISS:          0  HIT %:        100  MISS %:          0   MPKI: 0
PSCL2 LOAD TRANSLATION ACCESS:         31  HIT:         31  MISS:          0  HIT %:        100  MISS %:          0   MPKI: 0
PSCL2 PREFETCH  REQUESTED:          0  ISSUED:          0  USEFUL:          0  USELESS:          0
PSCL2 USEFUL LOAD PREFETCHES:          0 PREFETCH ISSUED TO LOWER LEVEL:          0  ACCURACY: -nan
PSCL2 TIMELY PREFETCHES:          0 LATE PREFETCHES: 0 DROPPED PREFETCHES: 0
PSCL2 PREFETCHES SAME FILL-ORIGIN LEVEL: 0 DIFFERENT FILL-ORIGIN LEVEL: 0

LLC TOTAL     ACCESS:       2678  HIT:        287  MISS:       2391  HIT %:     10.717  MISS %:     89.283   MPKI: 0.04782
LLC LOAD      ACCESS:         46  HIT:          4  MISS:         42  HIT %:    8.69565  MISS %:    91.3043   MPKI: 0.00084
LLC RFO       ACCESS:         16  HIT:          0  MISS:         16  HIT %:          0  MISS %:        100   MPKI: 0.00032
LLC PREFETCH  ACCESS:       2589  HIT:        262  MISS:       2327  HIT %:    10.1197  MISS %:    89.8803   MPKI: 0.04654
AGUS PREFETCH L1 MISS: 0
LLC WRITEBACK ACCESS:         10  HIT:         10  MISS:          0  HIT %:        100  MISS %:          0   MPKI: 0
LLC LOAD TRANSLATION ACCESS:         17  HIT:         11  MISS:          6  HIT %:    64.7059  MISS %:    35.2941   MPKI: 0.00012
LLC PREFETCH  REQUESTED:          0  ISSUED:          0  USEFUL:          4  USELESS:          0
LLC USEFUL LOAD PREFETCHES:          4 PREFETCH ISSUED TO LOWER LEVEL:       2327  ACCURACY: 0.171895
LLC TIMELY PREFETCHES:          4 LATE PREFETCHES: 0 DROPPED PREFETCHES: 0
LLC PREFETCHES SAME FILL-ORIGIN LEVEL: 0 DIFFERENT FILL-ORIGIN LEVEL: 0
LLC AVERAGE MISS LATENCY: 158.442 cycles
LLC RQ	ACCESS:         79	FORWARD:          0	MERGED:          0	TO_CACHE:         79
LLC WQ	ACCESS:         10	FORWARD:          0	MERGED:          0	TO_CACHE:         10
LLC PQ	ACCESS:       2589	FORWARD:          0	MERGED:          0	TO_CACHE:       2589

LLC Dense regions hint to LLC: 0

RAW hits: 1485
Loads Generated: 8629975
Loads sent to L1D: 8628487
Stores Generated: 2520
Stores sent to L1D: 2520
Major fault: 0 Minor fault: 247
Allocated PAGES: 247

stream: 
stream:times selected: 1763100
stream:pref_reqs: 9709325
stream:pref_reqs_filtered_out: 8761639
stream:pref_filled: 680638
stream:pref_useful: 504539
stream:pref_late: 55
stream:misses: 78
stream:misses_by_poll: 0

CS: 
CS:times selected: 1549224
CS:pref_reqs: 4573788
CS:pref_reqs_filtered_out: 4245852
CS:pref_filled: 188194
CS:pref_useful: 175462
CS:pref_late: 38
CS:misses: 28760
CS:misses_by_poll: 287

CPLX: 
CPLX:times selected: 211422
CPLX:pref_reqs: 451296
CPLX:pref_reqs_filtered_out: 431165
CPLX:pref_filled: 15880
CPLX:pref_useful: 7339
CPLX:pref_late: 1
CPLX:misses: 636
CPLX:misses_by_poll: 32

ISB: 
ISB:total access:8633525
ISB:times selected:3563230
ISB:canary counter:0
ISB:pref_reqs: 6807186
ISB:pref_reqs_filtered_out: 6291718
ISB:pref_filled: 248513
ISB:pref_useful: 162172
ISB:pref_late: 3
ISB:misses: 17317
ISB:misses_by_poll: 98
ISB:Stream end: 2945309
ISB:No Prediction: 5070295 58.728
ISB:No translation: 2999669227 34744.4
ISB:Predictions: 507681 5.88034

NL_L1: 
NL:times selected: 4336
NL:pref_reqs: 4336
NL:pref_reqs_filtered_out: 4206
NL:pref_filled: 10
NL:pref_useful: 10
NL:pref_late: 0
NL:misses: 20
NL:misses_by_poll: 0

Coverage: 95.2968
total selections: 7091312
total_filled: 564529
total_useful: 423786
total_late: 340
total_polluted: 417
total_misses_after_warmup: 30356
conflicts: 646

test: 0
Prefetcher final stats
Training Unit Size: 19
Addr table size: 5091 5093
Stream divergence: 10916 0.126437
Stream divergence -- new stream: 0
--------------------------Training unit table ------------------------

DRAM Statistics
 CHANNEL 0
 RQ ROW_BUFFER_HIT:        277  ROW_BUFFER_MISS:       2114
 DBUS_CONGESTED:          0
 WQ ROW_BUFFER_HIT:          0  ROW_BUFFER_MISS:          0  FULL:          0

 AVG_CONGESTED_CYCLE: -
 All warmup complete: 2
Channel 0 Bank busy for read cycles: 0
Channel 0 Bank busy for write cycles: 0
Channel 0
Rank 0
0banks busy for read cycles: 36264208
0banks busy for write cycles: 0
1banks busy for read cycles: 254912
1banks busy for write cycles: 0
2banks busy for read cycles: 26318
2banks busy for write cycles: 0
3banks busy for read cycles: 1683
3banks busy for write cycles: 0
4banks busy for read cycles: 2138
4banks busy for write cycles: 0
5banks busy for read cycles: 212
5banks busy for write cycles: 0
6banks busy for read cycles: 275
6banks busy for write cycles: 0
7banks busy for read cycles: 1013
7banks busy for write cycles: 0
8banks busy for read cycles: 0
8banks busy for write cycles: 0

CPU 0 Branch Prediction Accuracy: 99.6977% MPKI: 0.31292 Average ROB Occupancy at Mispredict: 34.8625
Branch types
NOT_BRANCH: 44824666 89.6493%
BRANCH_DIRECT_JUMP: 281 0.000562%
BRANCH_INDIRECT: 0 0%
BRANCH_CONDITIONAL: 5174833 10.3497%
BRANCH_DIRECT_CALL: 0 0%
BRANCH_INDIRECT_CALL: 0 0%
BRANCH_RETURN: 0 0%
BRANCH_OTHER: 0 0%

DRAM PAGES: 1048576
Allocated PAGES: 247
