
*** ChampSim Multicore Out-of-Order Simulator ***

Warmup Instructions: 50000000
Simulation Instructions: 50000000
Number of CPUs: 1
LLC sets: 2048
LLC ways: 16
Off-chip DRAM Size: 4096 MB Channels: 1 Width: 64-bit Data Rate: 6400 MT/s
CPU 0 runs ./traces/SPEC-CPU2017/638.imagick_s-10316B.champsimtrace.xz
.xz
CPU 0 Bimodal branch predictor
BTB has LRU replacement policy
ITLB has LRU replacement policy
DTLB has LRU replacement policy
STLB has LRU replacement policy
L1I has LRU replacement policy
L1D has LRU replacement policy
L2C has LRU replacement policy
LLC has LRU replacement policy
Heartbeat CPU 0 instructions: 10000000 cycles: 2591565 heartbeat IPC: 3.85867 cumulative IPC: 3.85867 (Simulation time: 0 hr 4 min 34 sec) 
Heartbeat CPU 0 instructions: 20000000 cycles: 5182719 heartbeat IPC: 3.85928 cumulative IPC: 3.85898 (Simulation time: 0 hr 10 min 22 sec) 
Heartbeat CPU 0 instructions: 30000002 cycles: 7773870 heartbeat IPC: 3.85929 cumulative IPC: 3.85908 (Simulation time: 0 hr 16 min 27 sec) 
Heartbeat CPU 0 instructions: 40000000 cycles: 10365076 heartbeat IPC: 3.85921 cumulative IPC: 3.85911 (Simulation time: 0 hr 22 min 16 sec) 
Heartbeat CPU 0 instructions: 50000003 cycles: 12956362 heartbeat IPC: 3.85909 cumulative IPC: 3.85911 (Simulation time: 0 hr 28 min 21 sec) 

Warmup complete CPU 0 instructions: 50000003 cycles: 12956362 (Simulation time: 0 hr 28 min 21 sec) 

Heartbeat CPU 0 instructions: 60000000 cycles: 20266895 heartbeat IPC: 1.36789 cumulative IPC: 1.36789 (Simulation time: 0 hr 29 min 42 sec) 
Heartbeat CPU 0 instructions: 70000000 cycles: 27576761 heartbeat IPC: 1.36801 cumulative IPC: 1.36795 (Simulation time: 0 hr 31 min 6 sec) 
Heartbeat CPU 0 instructions: 80000000 cycles: 34887007 heartbeat IPC: 1.36794 cumulative IPC: 1.36795 (Simulation time: 0 hr 32 min 28 sec) 
Heartbeat CPU 0 instructions: 90000003 cycles: 42197295 heartbeat IPC: 1.36794 cumulative IPC: 1.36795 (Simulation time: 0 hr 33 min 47 sec) 
Heartbeat CPU 0 instructions: 100000000 cycles: 49507407 heartbeat IPC: 1.36797 cumulative IPC: 1.36795 (Simulation time: 0 hr 35 min 4 sec) 
Finished CPU 0 instructions: 50000000 cycles: 36551062 cumulative IPC: 1.36795 (Simulation time: 0 hr 35 min 4 sec) 

ChampSim completed all CPUs

Region of Interest Statistics

CPU 0 cumulative IPC: 1.36795 instructions: 50000000 cycles: 36551062
ITLB TOTAL     ACCESS:    6893130  HIT:    6893130  MISS:          0  HIT %:        100  MISS %:          0   MPKI: 0
ITLB LOAD TRANSLATION ACCESS:    6893130  HIT:    6893130  MISS:          0  HIT %:        100  MISS %:          0   MPKI: 0
ITLB PREFETCH  REQUESTED:          0  ISSUED:          0  USEFUL:          0  USELESS:          0
ITLB USEFUL LOAD PREFETCHES:          0 PREFETCH ISSUED TO LOWER LEVEL:          0  ACCURACY: -nan
ITLB TIMELY PREFETCHES:          0 LATE PREFETCHES: 0 DROPPED PREFETCHES: 0
ITLB PREFETCHES SAME FILL-ORIGIN LEVEL: 0 DIFFERENT FILL-ORIGIN LEVEL: 0
ITLB AVERAGE MISS LATENCY: -nan cycles
ITLB RQ	ACCESS:    8627431	FORWARD:          0	MERGED:    1734301	TO_CACHE:    6893130

DTLB TOTAL     ACCESS:    3747885  HIT:    3724667  MISS:      23218  HIT %:    99.3805  MISS %:   0.619496   MPKI: 0.46436
DTLB LOAD TRANSLATION ACCESS:    3747885  HIT:    3724667  MISS:      23218  HIT %:    99.3805  MISS %:   0.619496   MPKI: 0.46436
DTLB PREFETCH  REQUESTED:          0  ISSUED:          0  USEFUL:          0  USELESS:          0
DTLB USEFUL LOAD PREFETCHES:          0 PREFETCH ISSUED TO LOWER LEVEL:          0  ACCURACY: -nan
DTLB TIMELY PREFETCHES:          0 LATE PREFETCHES: 0 DROPPED PREFETCHES: 0
DTLB PREFETCHES SAME FILL-ORIGIN LEVEL: 0 DIFFERENT FILL-ORIGIN LEVEL: 0
DTLB AVERAGE MISS LATENCY: 9.23167 cycles
DTLB RQ	ACCESS:    3765225	FORWARD:          0	MERGED:      17181	TO_CACHE:    3748044

STLB TOTAL     ACCESS:     439135  HIT:     439104  MISS:         31  HIT %:    99.9929  MISS %: 0.00705933   MPKI: 0.00062
STLB LOAD TRANSLATION ACCESS:      23218  HIT:      23187  MISS:         31  HIT %:    99.8665  MISS %:   0.133517   MPKI: 0.00062
STLB TRANSLATION FROM L1D PREFETCHER ACCESS:     415917  HIT:     415917  MISS:          0  HIT %:        100  MISS %:          0   MPKI: 0
STLB PREFETCH  REQUESTED:          0  ISSUED:          0  USEFUL:          0  USELESS:          0
STLB USEFUL LOAD PREFETCHES:          0 PREFETCH ISSUED TO LOWER LEVEL:          0  ACCURACY: -nan
STLB TIMELY PREFETCHES:          0 LATE PREFETCHES: 0 DROPPED PREFETCHES: 0
STLB PREFETCHES SAME FILL-ORIGIN LEVEL: 0 DIFFERENT FILL-ORIGIN LEVEL: 0
STLB AVERAGE MISS LATENCY: 161.968 cycles
STLB RQ	ACCESS:     640032	FORWARD:          0	MERGED:     200897	TO_CACHE:     439135

STLB Hit, L1D data hit: 0
STLB Hit, L2C data hit: 0
STLB Hit, LLC data hit: 0
STLB Hit, LLC data miss: 0
STLB STLB hints to L2: 0
L1D TOTAL     ACCESS:    4362639  HIT:    3754712  MISS:     607927  HIT %:    86.0652  MISS %:    13.9348   MPKI: 12.1585
L1D LOAD      ACCESS:    3745858  HIT:    3711870  MISS:      33988  HIT %:    99.0927  MISS %:   0.907349   MPKI: 0.67976
L1D RFO       ACCESS:       2283  HIT:       1986  MISS:        297  HIT %:    86.9908  MISS %:    13.0092   MPKI: 0.00594
L1D PREFETCH  ACCESS:     614498  HIT:      40856  MISS:     573642  HIT %:    6.64868  MISS %:    93.3513   MPKI: 11.4728
AGUS PREFETCH L1 MISS: 0
L1D PREFETCH  REQUESTED:    1239100  ISSUED:    1233628  USEFUL:     410713  USELESS:     162928
L1D USEFUL LOAD PREFETCHES:     410713 PREFETCH ISSUED TO LOWER LEVEL:     574245  ACCURACY: 71.5223
L1D TIMELY PREFETCHES:     410713 LATE PREFETCHES: 602 DROPPED PREFETCHES: 0
L1D PREFETCHES SAME FILL-ORIGIN LEVEL: 574245 DIFFERENT FILL-ORIGIN LEVEL: 0
L1D AVERAGE MISS LATENCY: 16.2147 cycles
L1D RQ	ACCESS:    8628487	FORWARD:          0	MERGED:    4865609	TO_CACHE:    3762821
L1D WQ	ACCESS:       2520	FORWARD:         57	MERGED:        116	TO_CACHE:       2404
L1D PQ	ACCESS:     616814	FORWARD:          0	MERGED:          0	TO_CACHE:     616814

L1D UNIQUE REGIONS ACCESSED: 0
L1D REGIONS CONFLICTS: 0
L1D Cross Page Prefetch Requests: 0
L1D Same Page Prefetch Requests: 1189853
L1D ROI Sum of L1D PQ occupancy: 8376185
L1D PREFETCHES PUSHED FROM L2C: 0
L1I TOTAL     ACCESS:    8627429  HIT:    8627429  MISS:          0  HIT %:        100  MISS %:          0   MPKI: 0
L1I LOAD      ACCESS:    8627429  HIT:    8627429  MISS:          0  HIT %:        100  MISS %:          0   MPKI: 0
L1I PREFETCH  REQUESTED:          0  ISSUED:          0  USEFUL:          0  USELESS:          0
L1I USEFUL LOAD PREFETCHES:          0 PREFETCH ISSUED TO LOWER LEVEL:          0  ACCURACY: -nan
L1I TIMELY PREFETCHES:          0 LATE PREFETCHES: 0 DROPPED PREFETCHES: 0
L1I PREFETCHES SAME FILL-ORIGIN LEVEL: 0 DIFFERENT FILL-ORIGIN LEVEL: 0
L1I AVERAGE MISS LATENCY: -nan cycles
L1I RQ	ACCESS:   13786416	FORWARD:          0	MERGED:    5158985	TO_CACHE:    8627431

BTB TOTAL     ACCESS:    3455324  HIT:    3455300  MISS:         24  HIT %:    99.9993  MISS %: 0.00069458   MPKI: 0.00048
BTB BRANCH_DIRECT_JUMP	ACCESS:        281  HIT:        278  MISS:          3
BTB BRANCH_INDIRECT	ACCESS:          0  HIT:          0  MISS:          0
BTB BRANCH_CONDITIONAL	ACCESS:    3455043  HIT:    3455022  MISS:         21
BTB BRANCH_DIRECT_CALL	ACCESS:          0  HIT:          0  MISS:          0
BTB BRANCH_INDIRECT_CALL	ACCESS:          0  HIT:          0  MISS:          0
BTB BRANCH_RETURN	ACCESS:          0  HIT:          0  MISS:          0
BTB BRANCH_OTHER ACCESS:          0  HIT:          0  MISS:          0

L2C TOTAL     ACCESS:     608676  HIT:     604963  MISS:       3713  HIT %:      99.39  MISS %:   0.610013   MPKI: 0.07426
L2C LOAD      ACCESS:      33386  HIT:      33335  MISS:         51  HIT %:    99.8472  MISS %:   0.152759   MPKI: 0.00102
L2C DATA LOAD MPKI: 0.00102
L2C INSTRUCTION LOAD MPKI: 0
L2C RFO       ACCESS:        297  HIT:        281  MISS:         16  HIT %:    94.6128  MISS %:    5.38721   MPKI: 0.00032
L2C PREFETCH  ACCESS:     574245  HIT:     570621  MISS:       3624  HIT %:    99.3689  MISS %:    0.63109   MPKI: 0.07248
AGUS PREFETCH L1 MISS: 0
L2C DATA PREFETCH MPKI: 0.07248
L2C INSTRUCTION PREFETCH MPKI: 0
L2C WRITEBACK ACCESS:        717  HIT:        717  MISS:          0  HIT %:        100  MISS %:          0   MPKI: 0
L2C LOAD TRANSLATION ACCESS:         31  HIT:          9  MISS:         22  HIT %:    29.0323  MISS %:    70.9677   MPKI: 0.00044
L2C PREFETCH  REQUESTED:          0  ISSUED:          0  USEFUL:       1735  USELESS:       1786
L2C USEFUL LOAD PREFETCHES:       1735 PREFETCH ISSUED TO LOWER LEVEL:       3624  ACCURACY: 47.8753
L2C TIMELY PREFETCHES:       1735 LATE PREFETCHES: 0 DROPPED PREFETCHES: 0
L2C PREFETCHES SAME FILL-ORIGIN LEVEL: 0 DIFFERENT FILL-ORIGIN LEVEL: 0
L2C AVERAGE MISS LATENCY: 125.213 cycles
L2C RQ	ACCESS:      33714	FORWARD:          0	MERGED:          0	TO_CACHE:      33714
L2C WQ	ACCESS:        717	FORWARD:          0	MERGED:          0	TO_CACHE:        717
L2C PQ	ACCESS:     574245	FORWARD:          0	MERGED:          0	TO_CACHE:     574245

L2C Instructions Evicting Data 0
L2C Translations Evicting Data 21
L2C Data Evicting Data 2583
L2C Instructions Evicting Instructions 0
L2C Translations Evicting Instructions 0
L2C Data Evicting Instructions 12
L2C Instructions Evicting Translations 0
L2C Translations Evicting Translations 0
L2C Data Evicting Translations 64
L2C Dense regions hint from L2: 0
PSCL5 TOTAL     ACCESS:         31  HIT:         31  MISS:          0  HIT %:        100  MISS %:          0   MPKI: 0
PSCL5 LOAD TRANSLATION ACCESS:         31  HIT:         31  MISS:          0  HIT %:        100  MISS %:          0   MPKI: 0
PSCL5 PREFETCH  REQUESTED:          0  ISSUED:          0  USEFUL:          0  USELESS:          0
PSCL5 USEFUL LOAD PREFETCHES:          0 PREFETCH ISSUED TO LOWER LEVEL:          0  ACCURACY: -nan
PSCL5 TIMELY PREFETCHES:          0 LATE PREFETCHES: 0 DROPPED PREFETCHES: 0
PSCL5 PREFETCHES SAME FILL-ORIGIN LEVEL: 0 DIFFERENT FILL-ORIGIN LEVEL: 0

PSCL4 TOTAL     ACCESS:         31  HIT:         31  MISS:          0  HIT %:        100  MISS %:          0   MPKI: 0
PSCL4 LOAD TRANSLATION ACCESS:         31  HIT:         31  MISS:          0  HIT %:        100  MISS %:          0   MPKI: 0
PSCL4 PREFETCH  REQUESTED:          0  ISSUED:          0  USEFUL:          0  USELESS:          0
PSCL4 USEFUL LOAD PREFETCHES:          0 PREFETCH ISSUED TO LOWER LEVEL:          0  ACCURACY: -nan
PSCL4 TIMELY PREFETCHES:          0 LATE PREFETCHES: 0 DROPPED PREFETCHES: 0
PSCL4 PREFETCHES SAME FILL-ORIGIN LEVEL: 0 DIFFERENT FILL-ORIGIN LEVEL: 0

PSCL3 TOTAL     ACCESS:         31  HIT:         31  MISS:          0  HIT %:        100  MISS %:          0   MPKI: 0
PSCL3 LOAD TRANSLATION ACCESS:         31  HIT:         31  MISS:          0  HIT %:        100  MISS %:          0   MPKI: 0
PSCL3 PREFETCH  REQUESTED:          0  ISSUED:          0  USEFUL:          0  USELESS:          0
PSCL3 USEFUL LOAD PREFETCHES:          0 PREFETCH ISSUED TO LOWER LEVEL:          0  ACCURACY: -nan
PSCL3 TIMELY PREFETCHES:          0 LATE PREFETCHES: 0 DROPPED PREFETCHES: 0
PSCL3 PREFETCHES SAME FILL-ORIGIN LEVEL: 0 DIFFERENT FILL-ORIGIN LEVEL: 0

PSCL2 TOTAL     ACCESS:         31  HIT:         31  MISS:          0  HIT %:        100  MISS %:          0   MPKI: 0
PSCL2 LOAD TRANSLATION ACCESS:         31  HIT:         31  MISS:          0  HIT %:        100  MISS %:          0   MPKI: 0
PSCL2 PREFETCH  REQUESTED:          0  ISSUED:          0  USEFUL:          0  USELESS:          0
PSCL2 USEFUL LOAD PREFETCHES:          0 PREFETCH ISSUED TO LOWER LEVEL:          0  ACCURACY: -nan
PSCL2 TIMELY PREFETCHES:          0 LATE PREFETCHES: 0 DROPPED PREFETCHES: 0
PSCL2 PREFETCHES SAME FILL-ORIGIN LEVEL: 0 DIFFERENT FILL-ORIGIN LEVEL: 0

LLC TOTAL     ACCESS:       3730  HIT:       1508  MISS:       2222  HIT %:     40.429  MISS %:     59.571   MPKI: 0.04444
LLC LOAD      ACCESS:         51  HIT:         10  MISS:         41  HIT %:    19.6078  MISS %:    80.3922   MPKI: 0.00082
LLC RFO       ACCESS:         16  HIT:          0  MISS:         16  HIT %:          0  MISS %:        100   MPKI: 0.00032
LLC PREFETCH  ACCESS:       3624  HIT:       1465  MISS:       2159  HIT %:    40.4249  MISS %:    59.5751   MPKI: 0.04318
AGUS PREFETCH L1 MISS: 0
LLC WRITEBACK ACCESS:         17  HIT:         17  MISS:          0  HIT %:        100  MISS %:          0   MPKI: 0
LLC LOAD TRANSLATION ACCESS:         22  HIT:         16  MISS:          6  HIT %:    72.7273  MISS %:    27.2727   MPKI: 0.00012
LLC PREFETCH  REQUESTED:          0  ISSUED:          0  USEFUL:          7  USELESS:          0
LLC USEFUL LOAD PREFETCHES:          7 PREFETCH ISSUED TO LOWER LEVEL:       2159  ACCURACY: 0.324224
LLC TIMELY PREFETCHES:          7 LATE PREFETCHES: 0 DROPPED PREFETCHES: 0
LLC PREFETCHES SAME FILL-ORIGIN LEVEL: 0 DIFFERENT FILL-ORIGIN LEVEL: 0
LLC AVERAGE MISS LATENCY: 159.102 cycles
LLC RQ	ACCESS:         89	FORWARD:          0	MERGED:          0	TO_CACHE:         89
LLC WQ	ACCESS:         17	FORWARD:          0	MERGED:          0	TO_CACHE:         17
LLC PQ	ACCESS:       3624	FORWARD:          0	MERGED:          0	TO_CACHE:       3624

LLC Dense regions hint to LLC: 0

RAW hits: 1485
Loads Generated: 8629975
Loads sent to L1D: 8628487
Stores Generated: 2520
Stores sent to L1D: 2520
Major fault: 0 Minor fault: 247
Allocated PAGES: 247

stream: 
stream:times selected: 1764555
stream:pref_filled: 860976
stream:pref_useful: 583979
stream:pref_late: 78
stream:misses: 6138
stream:misses_by_poll: 0

CS: 
CS:times selected: 1376872
CS:pref_filled: 240747
CS:pref_useful: 218987
CS:pref_late: 158
CS:misses: 57587
CS:misses_by_poll: 597

CPLX: 
CPLX:times selected: 384302
CPLX:pref_filled: 9015
CPLX:pref_useful: 4143
CPLX:pref_late: 22
CPLX:misses: 25795
CPLX:misses_by_poll: 24

NL_L1: 
NL:times selected: 7427
NL:pref_filled: 886
NL:pref_useful: 841
NL:pref_late: 0
NL:misses: 5834
NL:misses_by_poll: 0

total selections: 3533156
total_filled: 573642
total_useful: 410713
total_late: 781
total_polluted: 621
total_misses_after_warmup: 50951
conflicts: 646

test: 266769

DRAM Statistics
 CHANNEL 0
 RQ ROW_BUFFER_HIT:        243  ROW_BUFFER_MISS:       1979
 DBUS_CONGESTED:          0
 WQ ROW_BUFFER_HIT:          0  ROW_BUFFER_MISS:          0  FULL:          0

 AVG_CONGESTED_CYCLE: -
 All warmup complete: 2
Channel 0 Bank busy for read cycles: 0
Channel 0 Bank busy for write cycles: 0
Channel 0
Rank 0
0banks busy for read cycles: 36267080
0banks busy for write cycles: 0
1banks busy for read cycles: 272907
1banks busy for write cycles: 0
2banks busy for read cycles: 5800
2banks busy for write cycles: 0
3banks busy for read cycles: 1667
3banks busy for write cycles: 0
4banks busy for read cycles: 1276
4banks busy for write cycles: 0
5banks busy for read cycles: 841
5banks busy for write cycles: 0
6banks busy for read cycles: 261
6banks busy for write cycles: 0
7banks busy for read cycles: 1231
7banks busy for write cycles: 0
8banks busy for read cycles: 0
8banks busy for write cycles: 0

CPU 0 Branch Prediction Accuracy: 99.6977% MPKI: 0.31292 Average ROB Occupancy at Mispredict: 34.8156
Branch types
NOT_BRANCH: 44824666 89.6493%
BRANCH_DIRECT_JUMP: 281 0.000562%
BRANCH_INDIRECT: 0 0%
BRANCH_CONDITIONAL: 5174833 10.3497%
BRANCH_DIRECT_CALL: 0 0%
BRANCH_INDIRECT_CALL: 0 0%
BRANCH_RETURN: 0 0%
BRANCH_OTHER: 0 0%

DRAM PAGES: 1048576
Allocated PAGES: 247
