
*** ChampSim Multicore Out-of-Order Simulator ***

Warmup Instructions: 50000000
Simulation Instructions: 50000000
Number of CPUs: 1
LLC sets: 2048
LLC ways: 16
Off-chip DRAM Size: 4096 MB Channels: 1 Width: 64-bit Data Rate: 6400 MT/s
CPU 0 runs ./traces/SPEC-CPU2017/638.imagick_s-10316B.champsimtrace.xz
.xz
CPU 0 Bimodal branch predictor
BTB has LRU replacement policy
ITLB has LRU replacement policy
DTLB has LRU replacement policy
STLB has LRU replacement policy
L1I has LRU replacement policy
L1D has LRU replacement policy
L2C has LRU replacement policy
LLC has LRU replacement policy
Heartbeat CPU 0 instructions: 10000000 cycles: 2591906 heartbeat IPC: 3.85816 cumulative IPC: 3.85816 (Simulation time: 0 hr 4 min 30 sec) 
Heartbeat CPU 0 instructions: 20000000 cycles: 5183289 heartbeat IPC: 3.85894 cumulative IPC: 3.85855 (Simulation time: 0 hr 8 min 48 sec) 
Heartbeat CPU 0 instructions: 30000002 cycles: 7774728 heartbeat IPC: 3.85886 cumulative IPC: 3.85866 (Simulation time: 0 hr 13 min 33 sec) 
Heartbeat CPU 0 instructions: 40000000 cycles: 10366176 heartbeat IPC: 3.85885 cumulative IPC: 3.8587 (Simulation time: 0 hr 18 min 53 sec) 
Heartbeat CPU 0 instructions: 50000003 cycles: 12957694 heartbeat IPC: 3.85874 cumulative IPC: 3.85871 (Simulation time: 0 hr 24 min 8 sec) 

Warmup complete CPU 0 instructions: 50000003 cycles: 12957694 (Simulation time: 0 hr 24 min 8 sec) 

Heartbeat CPU 0 instructions: 60000000 cycles: 20267978 heartbeat IPC: 1.36794 cumulative IPC: 1.36794 (Simulation time: 0 hr 25 min 58 sec) 
Heartbeat CPU 0 instructions: 70000000 cycles: 27577865 heartbeat IPC: 1.36801 cumulative IPC: 1.36797 (Simulation time: 0 hr 27 min 51 sec) 
Heartbeat CPU 0 instructions: 80000000 cycles: 34888092 heartbeat IPC: 1.36795 cumulative IPC: 1.36796 (Simulation time: 0 hr 29 min 44 sec) 
Heartbeat CPU 0 instructions: 90000003 cycles: 42198037 heartbeat IPC: 1.368 cumulative IPC: 1.36797 (Simulation time: 0 hr 31 min 33 sec) 
Heartbeat CPU 0 instructions: 100000000 cycles: 49508126 heartbeat IPC: 1.36797 cumulative IPC: 1.36797 (Simulation time: 0 hr 33 min 33 sec) 
Finished CPU 0 instructions: 50000000 cycles: 36550449 cumulative IPC: 1.36797 (Simulation time: 0 hr 33 min 33 sec) 

ChampSim completed all CPUs

Region of Interest Statistics

CPU 0 cumulative IPC: 1.36797 instructions: 50000000 cycles: 36550449
ITLB TOTAL     ACCESS:    6893133  HIT:    6893133  MISS:          0  HIT %:        100  MISS %:          0   MPKI: 0
ITLB LOAD TRANSLATION ACCESS:    6893133  HIT:    6893133  MISS:          0  HIT %:        100  MISS %:          0   MPKI: 0
ITLB PREFETCH  REQUESTED:          0  ISSUED:          0  USEFUL:          0  USELESS:          0
ITLB USEFUL LOAD PREFETCHES:          0 PREFETCH ISSUED TO LOWER LEVEL:          0  ACCURACY: -nan
ITLB TIMELY PREFETCHES:          0 LATE PREFETCHES: 0 DROPPED PREFETCHES: 0
ITLB PREFETCHES SAME FILL-ORIGIN LEVEL: 0 DIFFERENT FILL-ORIGIN LEVEL: 0
ITLB AVERAGE MISS LATENCY: -nan cycles
ITLB RQ	ACCESS:    8627436	FORWARD:          0	MERGED:    1734302	TO_CACHE:    6893134

DTLB TOTAL     ACCESS:    3747012  HIT:    3723794  MISS:      23218  HIT %:    99.3804  MISS %:    0.61964   MPKI: 0.46436
DTLB LOAD TRANSLATION ACCESS:    3747012  HIT:    3723794  MISS:      23218  HIT %:    99.3804  MISS %:    0.61964   MPKI: 0.46436
DTLB PREFETCH  REQUESTED:          0  ISSUED:          0  USEFUL:          0  USELESS:          0
DTLB USEFUL LOAD PREFETCHES:          0 PREFETCH ISSUED TO LOWER LEVEL:          0  ACCURACY: -nan
DTLB TIMELY PREFETCHES:          0 LATE PREFETCHES: 0 DROPPED PREFETCHES: 0
DTLB PREFETCHES SAME FILL-ORIGIN LEVEL: 0 DIFFERENT FILL-ORIGIN LEVEL: 0
DTLB AVERAGE MISS LATENCY: 9.21363 cycles
DTLB RQ	ACCESS:    3764348	FORWARD:          0	MERGED:      17177	TO_CACHE:    3747171

STLB TOTAL     ACCESS:     453750  HIT:     453719  MISS:         31  HIT %:    99.9932  MISS %: 0.00683196   MPKI: 0.00062
STLB LOAD TRANSLATION ACCESS:      23218  HIT:      23187  MISS:         31  HIT %:    99.8665  MISS %:   0.133517   MPKI: 0.00062
STLB TRANSLATION FROM L1D PREFETCHER ACCESS:     430532  HIT:     430532  MISS:          0  HIT %:        100  MISS %:          0   MPKI: 0
STLB PREFETCH  REQUESTED:          0  ISSUED:          0  USEFUL:          0  USELESS:          0
STLB USEFUL LOAD PREFETCHES:          0 PREFETCH ISSUED TO LOWER LEVEL:          0  ACCURACY: -nan
STLB TIMELY PREFETCHES:          0 LATE PREFETCHES: 0 DROPPED PREFETCHES: 0
STLB PREFETCHES SAME FILL-ORIGIN LEVEL: 0 DIFFERENT FILL-ORIGIN LEVEL: 0
STLB AVERAGE MISS LATENCY: 152.29 cycles
STLB RQ	ACCESS:     530646	FORWARD:          0	MERGED:      76896	TO_CACHE:     453750

STLB Hit, L1D data hit: 0
STLB Hit, L2C data hit: 0
STLB Hit, LLC data hit: 0
STLB Hit, LLC data miss: 0
STLB STLB hints to L2: 0
L1D TOTAL     ACCESS:    4264090  HIT:    3760587  MISS:     503503  HIT %:     88.192  MISS %:     11.808   MPKI: 10.0701
L1D LOAD      ACCESS:    3755415  HIT:    3742944  MISS:      12471  HIT %:    99.6679  MISS %:    0.33208   MPKI: 0.24942
L1D RFO       ACCESS:       2283  HIT:       1986  MISS:        297  HIT %:    86.9908  MISS %:    13.0092   MPKI: 0.00594
L1D PREFETCH  ACCESS:     506392  HIT:      15657  MISS:     490735  HIT %:    3.09187  MISS %:    96.9081   MPKI: 9.8147
AGUS PREFETCH L1 MISS: 0
L1D PREFETCH  REQUESTED:    1015232  ISSUED:    1014856  USEFUL:     432230  USELESS:      58510
L1D USEFUL LOAD PREFETCHES:     432230 PREFETCH ISSUED TO LOWER LEVEL:     490814  ACCURACY: 88.0639
L1D TIMELY PREFETCHES:     432230 LATE PREFETCHES: 79 DROPPED PREFETCHES: 0
L1D PREFETCHES SAME FILL-ORIGIN LEVEL: 490814 DIFFERENT FILL-ORIGIN LEVEL: 0
L1D AVERAGE MISS LATENCY: 16.0877 cycles
L1D RQ	ACCESS:    8628489	FORWARD:          0	MERGED:    4866488	TO_CACHE:    3761944
L1D WQ	ACCESS:       2520	FORWARD:         57	MERGED:        116	TO_CACHE:       2404
L1D PQ	ACCESS:     507428	FORWARD:          0	MERGED:          0	TO_CACHE:     507428

L1D UNIQUE REGIONS ACCESSED: 0
L1D REGIONS CONFLICTS: 0
L1D Cross Page Prefetch Requests: 168842
L1D Same Page Prefetch Requests: 857716
L1D ROI Sum of L1D PQ occupancy: 6772674
L1D PREFETCHES PUSHED FROM L2C: 0
L1I TOTAL     ACCESS:    8627434  HIT:    8627434  MISS:          0  HIT %:        100  MISS %:          0   MPKI: 0
L1I LOAD      ACCESS:    8627434  HIT:    8627434  MISS:          0  HIT %:        100  MISS %:          0   MPKI: 0
L1I PREFETCH  REQUESTED:          0  ISSUED:          0  USEFUL:          0  USELESS:          0
L1I USEFUL LOAD PREFETCHES:          0 PREFETCH ISSUED TO LOWER LEVEL:          0  ACCURACY: -nan
L1I TIMELY PREFETCHES:          0 LATE PREFETCHES: 0 DROPPED PREFETCHES: 0
L1I PREFETCHES SAME FILL-ORIGIN LEVEL: 0 DIFFERENT FILL-ORIGIN LEVEL: 0
L1I AVERAGE MISS LATENCY: -nan cycles
L1I RQ	ACCESS:   13786421	FORWARD:          0	MERGED:    5158985	TO_CACHE:    8627436

BTB TOTAL     ACCESS:    3455324  HIT:    3455300  MISS:         24  HIT %:    99.9993  MISS %: 0.00069458   MPKI: 0.00048
BTB BRANCH_DIRECT_JUMP	ACCESS:        281  HIT:        278  MISS:          3
BTB BRANCH_INDIRECT	ACCESS:          0  HIT:          0  MISS:          0
BTB BRANCH_CONDITIONAL	ACCESS:    3455043  HIT:    3455022  MISS:         21
BTB BRANCH_DIRECT_CALL	ACCESS:          0  HIT:          0  MISS:          0
BTB BRANCH_INDIRECT_CALL	ACCESS:          0  HIT:          0  MISS:          0
BTB BRANCH_RETURN	ACCESS:          0  HIT:          0  MISS:          0
BTB BRANCH_OTHER ACCESS:          0  HIT:          0  MISS:          0

L2C TOTAL     ACCESS:     504251  HIT:     501474  MISS:       2777  HIT %:    99.4493  MISS %:   0.550718   MPKI: 0.05554
L2C LOAD      ACCESS:      12392  HIT:      12352  MISS:         40  HIT %:    99.6772  MISS %:   0.322789   MPKI: 0.0008
L2C DATA LOAD MPKI: 0.0008
L2C INSTRUCTION LOAD MPKI: 0
L2C RFO       ACCESS:        297  HIT:        280  MISS:         17  HIT %:    94.2761  MISS %:    5.72391   MPKI: 0.00034
L2C PREFETCH  ACCESS:     490814  HIT:     488106  MISS:       2708  HIT %:    99.4483  MISS %:   0.551737   MPKI: 0.05416
AGUS PREFETCH L1 MISS: 0
L2C DATA PREFETCH MPKI: 0.05416
L2C INSTRUCTION PREFETCH MPKI: 0
L2C WRITEBACK ACCESS:        717  HIT:        717  MISS:          0  HIT %:        100  MISS %:          0   MPKI: 0
L2C LOAD TRANSLATION ACCESS:         31  HIT:         19  MISS:         12  HIT %:    61.2903  MISS %:    38.7097   MPKI: 0.00024
L2C PREFETCH  REQUESTED:          0  ISSUED:          0  USEFUL:       1924  USELESS:        467
L2C USEFUL LOAD PREFETCHES:       1924 PREFETCH ISSUED TO LOWER LEVEL:       2708  ACCURACY: 71.0487
L2C TIMELY PREFETCHES:       1924 LATE PREFETCHES: 0 DROPPED PREFETCHES: 0
L2C PREFETCHES SAME FILL-ORIGIN LEVEL: 0 DIFFERENT FILL-ORIGIN LEVEL: 0
L2C AVERAGE MISS LATENCY: 165.478 cycles
L2C RQ	ACCESS:      12720	FORWARD:          0	MERGED:          0	TO_CACHE:      12720
L2C WQ	ACCESS:        717	FORWARD:          0	MERGED:          0	TO_CACHE:        717
L2C PQ	ACCESS:     490814	FORWARD:          0	MERGED:          0	TO_CACHE:     490814

L2C Instructions Evicting Data 0
L2C Translations Evicting Data 10
L2C Data Evicting Data 1105
L2C Instructions Evicting Instructions 0
L2C Translations Evicting Instructions 0
L2C Data Evicting Instructions 11
L2C Instructions Evicting Translations 0
L2C Translations Evicting Translations 0
L2C Data Evicting Translations 56
L2C Dense regions hint from L2: 0
PSCL5 TOTAL     ACCESS:         31  HIT:         31  MISS:          0  HIT %:        100  MISS %:          0   MPKI: 0
PSCL5 LOAD TRANSLATION ACCESS:         31  HIT:         31  MISS:          0  HIT %:        100  MISS %:          0   MPKI: 0
PSCL5 PREFETCH  REQUESTED:          0  ISSUED:          0  USEFUL:          0  USELESS:          0
PSCL5 USEFUL LOAD PREFETCHES:          0 PREFETCH ISSUED TO LOWER LEVEL:          0  ACCURACY: -nan
PSCL5 TIMELY PREFETCHES:          0 LATE PREFETCHES: 0 DROPPED PREFETCHES: 0
PSCL5 PREFETCHES SAME FILL-ORIGIN LEVEL: 0 DIFFERENT FILL-ORIGIN LEVEL: 0

PSCL4 TOTAL     ACCESS:         31  HIT:         31  MISS:          0  HIT %:        100  MISS %:          0   MPKI: 0
PSCL4 LOAD TRANSLATION ACCESS:         31  HIT:         31  MISS:          0  HIT %:        100  MISS %:          0   MPKI: 0
PSCL4 PREFETCH  REQUESTED:          0  ISSUED:          0  USEFUL:          0  USELESS:          0
PSCL4 USEFUL LOAD PREFETCHES:          0 PREFETCH ISSUED TO LOWER LEVEL:          0  ACCURACY: -nan
PSCL4 TIMELY PREFETCHES:          0 LATE PREFETCHES: 0 DROPPED PREFETCHES: 0
PSCL4 PREFETCHES SAME FILL-ORIGIN LEVEL: 0 DIFFERENT FILL-ORIGIN LEVEL: 0

PSCL3 TOTAL     ACCESS:         31  HIT:         31  MISS:          0  HIT %:        100  MISS %:          0   MPKI: 0
PSCL3 LOAD TRANSLATION ACCESS:         31  HIT:         31  MISS:          0  HIT %:        100  MISS %:          0   MPKI: 0
PSCL3 PREFETCH  REQUESTED:          0  ISSUED:          0  USEFUL:          0  USELESS:          0
PSCL3 USEFUL LOAD PREFETCHES:          0 PREFETCH ISSUED TO LOWER LEVEL:          0  ACCURACY: -nan
PSCL3 TIMELY PREFETCHES:          0 LATE PREFETCHES: 0 DROPPED PREFETCHES: 0
PSCL3 PREFETCHES SAME FILL-ORIGIN LEVEL: 0 DIFFERENT FILL-ORIGIN LEVEL: 0

PSCL2 TOTAL     ACCESS:         31  HIT:         31  MISS:          0  HIT %:        100  MISS %:          0   MPKI: 0
PSCL2 LOAD TRANSLATION ACCESS:         31  HIT:         31  MISS:          0  HIT %:        100  MISS %:          0   MPKI: 0
PSCL2 PREFETCH  REQUESTED:          0  ISSUED:          0  USEFUL:          0  USELESS:          0
PSCL2 USEFUL LOAD PREFETCHES:          0 PREFETCH ISSUED TO LOWER LEVEL:          0  ACCURACY: -nan
PSCL2 TIMELY PREFETCHES:          0 LATE PREFETCHES: 0 DROPPED PREFETCHES: 0
PSCL2 PREFETCHES SAME FILL-ORIGIN LEVEL: 0 DIFFERENT FILL-ORIGIN LEVEL: 0

LLC TOTAL     ACCESS:       2790  HIT:        428  MISS:       2362  HIT %:    15.3405  MISS %:    84.6595   MPKI: 0.04724
LLC LOAD      ACCESS:         40  HIT:          0  MISS:         40  HIT %:          0  MISS %:        100   MPKI: 0.0008
LLC RFO       ACCESS:         17  HIT:          0  MISS:         17  HIT %:          0  MISS %:        100   MPKI: 0.00034
LLC PREFETCH  ACCESS:       2708  HIT:        409  MISS:       2299  HIT %:    15.1034  MISS %:    84.8966   MPKI: 0.04598
AGUS PREFETCH L1 MISS: 0
LLC WRITEBACK ACCESS:         13  HIT:         13  MISS:          0  HIT %:        100  MISS %:          0   MPKI: 0
LLC LOAD TRANSLATION ACCESS:         12  HIT:          6  MISS:          6  HIT %:         50  MISS %:         50   MPKI: 0.00012
LLC PREFETCH  REQUESTED:          0  ISSUED:          0  USEFUL:          0  USELESS:          0
LLC USEFUL LOAD PREFETCHES:          0 PREFETCH ISSUED TO LOWER LEVEL:       2299  ACCURACY: 0
LLC TIMELY PREFETCHES:          0 LATE PREFETCHES: 0 DROPPED PREFETCHES: 0
LLC PREFETCHES SAME FILL-ORIGIN LEVEL: 0 DIFFERENT FILL-ORIGIN LEVEL: 0
LLC AVERAGE MISS LATENCY: 159.246 cycles
LLC RQ	ACCESS:         69	FORWARD:          0	MERGED:          0	TO_CACHE:         69
LLC WQ	ACCESS:         13	FORWARD:          0	MERGED:          0	TO_CACHE:         13
LLC PQ	ACCESS:       2708	FORWARD:          0	MERGED:          0	TO_CACHE:       2708

LLC Dense regions hint to LLC: 0

RAW hits: 1485
Loads Generated: 8629975
Loads sent to L1D: 8628489
Stores Generated: 2520
Stores sent to L1D: 2520
Major fault: 0 Minor fault: 247
Allocated PAGES: 247

stream: 
stream:times selected: 1762513
stream:pref_reqs: 1881643
stream:pref_reqs_filtered_out: 1839301
stream:pref_filled: 29757
stream:pref_useful: 20581
stream:pref_late: 33
stream:misses: 50
stream:misses_by_poll: 0

CS: 
CS:times selected: 1483310
CS:pref_reqs: 4366988
CS:pref_reqs_filtered_out: 3903766
CS:pref_filled: 367096
CS:pref_useful: 272883
CS:pref_late: 15
CS:misses: 1837
CS:misses_by_poll: 488

CPLX: 
CPLX:times selected: 276661
CPLX:pref_reqs: 199926
CPLX:pref_reqs_filtered_out: 194892
CPLX:pref_filled: 4554
CPLX:pref_useful: 2039
CPLX:pref_late: 1
CPLX:misses: 394
CPLX:misses_by_poll: 7

ISB: 
ISB:total access:6002454
ISB:times selected:5840888
ISB:canary counter:0
ISB:pref_reqs: 28274131
ISB:pref_reqs_filtered_out: 27678318
ISB:pref_filled: 580451
ISB:pref_useful: 570370
ISB:pref_late: 11
ISB:misses: 25376
ISB:misses_by_poll: 326
ISB:Stream end: 2719223
ISB:No Prediction: 161566 2.69167
ISB:No translation: 2726321777
ISB:Predictions: 594903 9.911

NL_L1: 
NL:times selected: 997
NL:pref_reqs: 997
NL:pref_reqs_filtered_out: 800
NL:pref_filled: 186
NL:pref_useful: 159
NL:pref_late: 0
NL:misses: 34
NL:misses_by_poll: 0

Coverage: 97.1956
total selections: 9364369
total_filled: 490735
total_useful: 432230
total_late: 99
total_polluted: 821
total_misses_after_warmup: 19000
conflicts: 646

test: 0
ISB Prefetcher final stats
Prefetcher final stats
Training Unit Size: 49
Addr table size: 7028 9457
Triggers: 6002454
Structural address exists: 5840888 97.3083
No Prediction: 161566 2.69167
Prefetches issued: 594903 9.911
Stream end: 2719223
No translation: 2726321777
%Stream divergence: 64398 1.07286
Stream divergence -- new stream: 0
A: 0
B: 0
C: 1762514
D: 1762514
E: 1762514
F: 0
G: 0

DRAM Statistics
 CHANNEL 0
 RQ ROW_BUFFER_HIT:        254  ROW_BUFFER_MISS:       2108
 DBUS_CONGESTED:          0
 WQ ROW_BUFFER_HIT:          0  ROW_BUFFER_MISS:          0  FULL:          0

 AVG_CONGESTED_CYCLE: -
 All warmup complete: 2
Channel 0 Bank busy for read cycles: 0
Channel 0 Bank busy for write cycles: 0
Channel 0
Rank 0
0banks busy for read cycles: 36258195
0banks busy for write cycles: 0
1banks busy for read cycles: 259665
1banks busy for write cycles: 0
2banks busy for read cycles: 30208
2banks busy for write cycles: 0
3banks busy for read cycles: 709
3banks busy for write cycles: 0
4banks busy for read cycles: 1673
4banks busy for write cycles: 0
5banks busy for read cycles: 0
5banks busy for write cycles: 0
6banks busy for read cycles: 0
6banks busy for write cycles: 0
7banks busy for read cycles: 0
7banks busy for write cycles: 0
8banks busy for read cycles: 0
8banks busy for write cycles: 0

CPU 0 Branch Prediction Accuracy: 99.6977% MPKI: 0.31292 Average ROB Occupancy at Mispredict: 34.8455
Branch types
NOT_BRANCH: 44824674 89.6493%
BRANCH_DIRECT_JUMP: 281 0.000562%
BRANCH_INDIRECT: 0 0%
BRANCH_CONDITIONAL: 5174833 10.3497%
BRANCH_DIRECT_CALL: 0 0%
BRANCH_INDIRECT_CALL: 0 0%
BRANCH_RETURN: 0 0%
BRANCH_OTHER: 0 0%

DRAM PAGES: 1048576
Allocated PAGES: 247
