
*** ChampSim Multicore Out-of-Order Simulator ***

Warmup Instructions: 50000000
Simulation Instructions: 50000000
Number of CPUs: 1
LLC sets: 2048
LLC ways: 16
Off-chip DRAM Size: 4096 MB Channels: 1 Width: 64-bit Data Rate: 6400 MT/s
CPU 0 runs ./traces/SPEC-CPU2017/638.imagick_s-10316B.champsimtrace.xz
.xz
CPU 0 Bimodal branch predictor
BTB has LRU replacement policy
ITLB has LRU replacement policy
DTLB has LRU replacement policy
STLB has LRU replacement policy
L1I has LRU replacement policy
L1D has LRU replacement policy
L2C has LRU replacement policy
LLC has LRU replacement policy
Heartbeat CPU 0 instructions: 10000000 cycles: 2592555 heartbeat IPC: 3.8572 cumulative IPC: 3.8572 (Simulation time: 0 hr 0 min 43 sec) 
Heartbeat CPU 0 instructions: 20000000 cycles: 5184500 heartbeat IPC: 3.85811 cumulative IPC: 3.85765 (Simulation time: 0 hr 1 min 31 sec) 
Heartbeat CPU 0 instructions: 30000002 cycles: 7776484 heartbeat IPC: 3.85805 cumulative IPC: 3.85778 (Simulation time: 0 hr 2 min 19 sec) 
Heartbeat CPU 0 instructions: 40000000 cycles: 10368521 heartbeat IPC: 3.85797 cumulative IPC: 3.85783 (Simulation time: 0 hr 3 min 9 sec) 
Heartbeat CPU 0 instructions: 50000003 cycles: 12960587 heartbeat IPC: 3.85793 cumulative IPC: 3.85785 (Simulation time: 0 hr 3 min 58 sec) 

Warmup complete CPU 0 instructions: 50000003 cycles: 12960587 (Simulation time: 0 hr 3 min 58 sec) 

Heartbeat CPU 0 instructions: 60000000 cycles: 20293287 heartbeat IPC: 1.36375 cumulative IPC: 1.36375 (Simulation time: 0 hr 4 min 44 sec) 
Heartbeat CPU 0 instructions: 70000000 cycles: 27625290 heartbeat IPC: 1.36388 cumulative IPC: 1.36382 (Simulation time: 0 hr 5 min 26 sec) 
Heartbeat CPU 0 instructions: 80000000 cycles: 34957479 heartbeat IPC: 1.36385 cumulative IPC: 1.36383 (Simulation time: 0 hr 6 min 0 sec) 
Heartbeat CPU 0 instructions: 90000000 cycles: 42289297 heartbeat IPC: 1.36392 cumulative IPC: 1.36385 (Simulation time: 0 hr 6 min 44 sec) 
Heartbeat CPU 0 instructions: 100000000 cycles: 49620968 heartbeat IPC: 1.36395 cumulative IPC: 1.36387 (Simulation time: 0 hr 7 min 33 sec) 
Finished CPU 0 instructions: 50000000 cycles: 36660398 cumulative IPC: 1.36387 (Simulation time: 0 hr 7 min 33 sec) 

ChampSim completed all CPUs

Region of Interest Statistics

CPU 0 cumulative IPC: 1.36387 instructions: 50000000 cycles: 36660398
ITLB TOTAL     ACCESS:    6894801  HIT:    6894801  MISS:          0  HIT %:        100  MISS %:          0   MPKI: 0
ITLB LOAD TRANSLATION ACCESS:    6894801  HIT:    6894801  MISS:          0  HIT %:        100  MISS %:          0   MPKI: 0
ITLB PREFETCH  REQUESTED:          0  ISSUED:          0  USEFUL:          0  USELESS:          0
ITLB USEFUL LOAD PREFETCHES:          0 PREFETCH ISSUED TO LOWER LEVEL:          0  ACCURACY: -nan
ITLB TIMELY PREFETCHES:          0 LATE PREFETCHES: 0 DROPPED PREFETCHES: 0
ITLB PREFETCHES SAME FILL-ORIGIN LEVEL: 0 DIFFERENT FILL-ORIGIN LEVEL: 0
ITLB AVERAGE MISS LATENCY: -nan cycles
ITLB RQ	ACCESS:    8627657	FORWARD:          0	MERGED:    1732856	TO_CACHE:    6894801

DTLB TOTAL     ACCESS:    3708612  HIT:    3685394  MISS:      23218  HIT %:    99.3739  MISS %:   0.626056   MPKI: 0.46436
DTLB LOAD TRANSLATION ACCESS:    3708612  HIT:    3685394  MISS:      23218  HIT %:    99.3739  MISS %:   0.626056   MPKI: 0.46436
DTLB PREFETCH  REQUESTED:          0  ISSUED:          0  USEFUL:          0  USELESS:          0
DTLB USEFUL LOAD PREFETCHES:          0 PREFETCH ISSUED TO LOWER LEVEL:          0  ACCURACY: -nan
DTLB TIMELY PREFETCHES:          0 LATE PREFETCHES: 0 DROPPED PREFETCHES: 0
DTLB PREFETCHES SAME FILL-ORIGIN LEVEL: 0 DIFFERENT FILL-ORIGIN LEVEL: 0
DTLB AVERAGE MISS LATENCY: 9.21526 cycles
DTLB RQ	ACCESS:    3726147	FORWARD:          0	MERGED:      17339	TO_CACHE:    3708808

STLB TOTAL     ACCESS:      23218  HIT:      23187  MISS:         31  HIT %:    99.8665  MISS %:   0.133517   MPKI: 0.00062
STLB LOAD TRANSLATION ACCESS:      23218  HIT:      23187  MISS:         31  HIT %:    99.8665  MISS %:   0.133517   MPKI: 0.00062
STLB PREFETCH  REQUESTED:          0  ISSUED:          0  USEFUL:          0  USELESS:          0
STLB USEFUL LOAD PREFETCHES:          0 PREFETCH ISSUED TO LOWER LEVEL:          0  ACCURACY: -nan
STLB TIMELY PREFETCHES:          0 LATE PREFETCHES: 0 DROPPED PREFETCHES: 0
STLB PREFETCHES SAME FILL-ORIGIN LEVEL: 0 DIFFERENT FILL-ORIGIN LEVEL: 0
STLB AVERAGE MISS LATENCY: 152.613 cycles
STLB RQ	ACCESS:      23218	FORWARD:          0	MERGED:          0	TO_CACHE:      23218

STLB Hit, L1D data hit: 0
STLB Hit, L2C data hit: 0
STLB Hit, LLC data hit: 0
STLB Hit, LLC data miss: 0
STLB STLB hints to L2: 0
L1D TOTAL     ACCESS:    3629029  HIT:    3184031  MISS:     444998  HIT %:    87.7378  MISS %:    12.2622   MPKI: 8.89996
L1D LOAD      ACCESS:    3626749  HIT:    3182048  MISS:     444701  HIT %:    87.7383  MISS %:    12.2617   MPKI: 8.89402
L1D RFO       ACCESS:       2280  HIT:       1983  MISS:        297  HIT %:    86.9737  MISS %:    13.0263   MPKI: 0.00594
L1D PREFETCH  REQUESTED:          0  ISSUED:          0  USEFUL:          0  USELESS:          0
L1D USEFUL LOAD PREFETCHES:          0 PREFETCH ISSUED TO LOWER LEVEL:          0  ACCURACY: -nan
L1D TIMELY PREFETCHES:          0 LATE PREFETCHES: 0 DROPPED PREFETCHES: 0
L1D PREFETCHES SAME FILL-ORIGIN LEVEL: 0 DIFFERENT FILL-ORIGIN LEVEL: 0
L1D AVERAGE MISS LATENCY: 15.8665 cycles
L1D RQ	ACCESS:    8628486	FORWARD:          0	MERGED:    4904691	TO_CACHE:    3723743
L1D WQ	ACCESS:       2520	FORWARD:         52	MERGED:        116	TO_CACHE:       2404

L1D UNIQUE REGIONS ACCESSED: 0
L1D REGIONS CONFLICTS: 0
L1D Cross Page Prefetch Requests: 0
L1D Same Page Prefetch Requests: 0
L1D ROI Sum of L1D PQ occupancy: 0
L1D PREFETCHES PUSHED FROM L2C: 0
L1I TOTAL     ACCESS:    8627655  HIT:    8627655  MISS:          0  HIT %:        100  MISS %:          0   MPKI: 0
L1I LOAD      ACCESS:    8627655  HIT:    8627655  MISS:          0  HIT %:        100  MISS %:          0   MPKI: 0
L1I PREFETCH  REQUESTED:          0  ISSUED:          0  USEFUL:          0  USELESS:          0
L1I USEFUL LOAD PREFETCHES:          0 PREFETCH ISSUED TO LOWER LEVEL:          0  ACCURACY: -nan
L1I TIMELY PREFETCHES:          0 LATE PREFETCHES: 0 DROPPED PREFETCHES: 0
L1I PREFETCHES SAME FILL-ORIGIN LEVEL: 0 DIFFERENT FILL-ORIGIN LEVEL: 0
L1I AVERAGE MISS LATENCY: -nan cycles
L1I RQ	ACCESS:   13786932	FORWARD:          0	MERGED:    5159275	TO_CACHE:    8627657

BTB TOTAL     ACCESS:    3455324  HIT:    3455300  MISS:         24  HIT %:    99.9993  MISS %: 0.00069458   MPKI: 0.00048
BTB BRANCH_DIRECT_JUMP	ACCESS:        281  HIT:        278  MISS:          3
BTB BRANCH_INDIRECT	ACCESS:          0  HIT:          0  MISS:          0
BTB BRANCH_CONDITIONAL	ACCESS:    3455043  HIT:    3455022  MISS:         21
BTB BRANCH_DIRECT_CALL	ACCESS:          0  HIT:          0  MISS:          0
BTB BRANCH_INDIRECT_CALL	ACCESS:          0  HIT:          0  MISS:          0
BTB BRANCH_RETURN	ACCESS:          0  HIT:          0  MISS:          0
BTB BRANCH_OTHER ACCESS:          0  HIT:          0  MISS:          0

L2C TOTAL     ACCESS:     445746  HIT:     443784  MISS:       1962  HIT %:    99.5598  MISS %:   0.440161   MPKI: 0.03924
L2C LOAD      ACCESS:     444701  HIT:     442765  MISS:       1936  HIT %:    99.5647  MISS %:   0.435349   MPKI: 0.03872
L2C DATA LOAD MPKI: 0.03872
L2C INSTRUCTION LOAD MPKI: 0
L2C RFO       ACCESS:        297  HIT:        280  MISS:         17  HIT %:    94.2761  MISS %:    5.72391   MPKI: 0.00034
L2C WRITEBACK ACCESS:        717  HIT:        717  MISS:          0  HIT %:        100  MISS %:          0   MPKI: 0
L2C LOAD TRANSLATION ACCESS:         31  HIT:         22  MISS:          9  HIT %:    70.9677  MISS %:    29.0323   MPKI: 0.00018
L2C PREFETCH  REQUESTED:          0  ISSUED:          0  USEFUL:          0  USELESS:          0
L2C USEFUL LOAD PREFETCHES:          0 PREFETCH ISSUED TO LOWER LEVEL:          0  ACCURACY: -nan
L2C TIMELY PREFETCHES:          0 LATE PREFETCHES: 0 DROPPED PREFETCHES: 0
L2C PREFETCHES SAME FILL-ORIGIN LEVEL: 0 DIFFERENT FILL-ORIGIN LEVEL: 0
L2C AVERAGE MISS LATENCY: 186.998 cycles
L2C RQ	ACCESS:     445029	FORWARD:          0	MERGED:          0	TO_CACHE:     445029
L2C WQ	ACCESS:        717	FORWARD:          0	MERGED:          0	TO_CACHE:        717

L2C Instructions Evicting Data 0
L2C Translations Evicting Data 3
L2C Data Evicting Data 171
L2C Instructions Evicting Instructions 0
L2C Translations Evicting Instructions 0
L2C Data Evicting Instructions 6
L2C Instructions Evicting Translations 0
L2C Translations Evicting Translations 0
L2C Data Evicting Translations 36
L2C Dense regions hint from L2: 0
PSCL5 TOTAL     ACCESS:         31  HIT:         31  MISS:          0  HIT %:        100  MISS %:          0   MPKI: 0
PSCL5 LOAD TRANSLATION ACCESS:         31  HIT:         31  MISS:          0  HIT %:        100  MISS %:          0   MPKI: 0
PSCL5 PREFETCH  REQUESTED:          0  ISSUED:          0  USEFUL:          0  USELESS:          0
PSCL5 USEFUL LOAD PREFETCHES:          0 PREFETCH ISSUED TO LOWER LEVEL:          0  ACCURACY: -nan
PSCL5 TIMELY PREFETCHES:          0 LATE PREFETCHES: 0 DROPPED PREFETCHES: 0
PSCL5 PREFETCHES SAME FILL-ORIGIN LEVEL: 0 DIFFERENT FILL-ORIGIN LEVEL: 0

PSCL4 TOTAL     ACCESS:         31  HIT:         31  MISS:          0  HIT %:        100  MISS %:          0   MPKI: 0
PSCL4 LOAD TRANSLATION ACCESS:         31  HIT:         31  MISS:          0  HIT %:        100  MISS %:          0   MPKI: 0
PSCL4 PREFETCH  REQUESTED:          0  ISSUED:          0  USEFUL:          0  USELESS:          0
PSCL4 USEFUL LOAD PREFETCHES:          0 PREFETCH ISSUED TO LOWER LEVEL:          0  ACCURACY: -nan
PSCL4 TIMELY PREFETCHES:          0 LATE PREFETCHES: 0 DROPPED PREFETCHES: 0
PSCL4 PREFETCHES SAME FILL-ORIGIN LEVEL: 0 DIFFERENT FILL-ORIGIN LEVEL: 0

PSCL3 TOTAL     ACCESS:         31  HIT:         31  MISS:          0  HIT %:        100  MISS %:          0   MPKI: 0
PSCL3 LOAD TRANSLATION ACCESS:         31  HIT:         31  MISS:          0  HIT %:        100  MISS %:          0   MPKI: 0
PSCL3 PREFETCH  REQUESTED:          0  ISSUED:          0  USEFUL:          0  USELESS:          0
PSCL3 USEFUL LOAD PREFETCHES:          0 PREFETCH ISSUED TO LOWER LEVEL:          0  ACCURACY: -nan
PSCL3 TIMELY PREFETCHES:          0 LATE PREFETCHES: 0 DROPPED PREFETCHES: 0
PSCL3 PREFETCHES SAME FILL-ORIGIN LEVEL: 0 DIFFERENT FILL-ORIGIN LEVEL: 0

PSCL2 TOTAL     ACCESS:         31  HIT:         31  MISS:          0  HIT %:        100  MISS %:          0   MPKI: 0
PSCL2 LOAD TRANSLATION ACCESS:         31  HIT:         31  MISS:          0  HIT %:        100  MISS %:          0   MPKI: 0
PSCL2 PREFETCH  REQUESTED:          0  ISSUED:          0  USEFUL:          0  USELESS:          0
PSCL2 USEFUL LOAD PREFETCHES:          0 PREFETCH ISSUED TO LOWER LEVEL:          0  ACCURACY: -nan
PSCL2 TIMELY PREFETCHES:          0 LATE PREFETCHES: 0 DROPPED PREFETCHES: 0
PSCL2 PREFETCHES SAME FILL-ORIGIN LEVEL: 0 DIFFERENT FILL-ORIGIN LEVEL: 0

LLC TOTAL     ACCESS:       1971  HIT:         12  MISS:       1959  HIT %:   0.608828  MISS %:    99.3912   MPKI: 0.03918
LLC LOAD      ACCESS:       1936  HIT:          0  MISS:       1936  HIT %:          0  MISS %:        100   MPKI: 0.03872
LLC RFO       ACCESS:         17  HIT:          0  MISS:         17  HIT %:          0  MISS %:        100   MPKI: 0.00034
LLC WRITEBACK ACCESS:          9  HIT:          9  MISS:          0  HIT %:        100  MISS %:          0   MPKI: 0
LLC LOAD TRANSLATION ACCESS:          9  HIT:          3  MISS:          6  HIT %:    33.3333  MISS %:    66.6667   MPKI: 0.00012
LLC PREFETCH  REQUESTED:          0  ISSUED:          0  USEFUL:          0  USELESS:          0
LLC USEFUL LOAD PREFETCHES:          0 PREFETCH ISSUED TO LOWER LEVEL:          0  ACCURACY: -nan
LLC TIMELY PREFETCHES:          0 LATE PREFETCHES: 0 DROPPED PREFETCHES: 0
LLC PREFETCHES SAME FILL-ORIGIN LEVEL: 0 DIFFERENT FILL-ORIGIN LEVEL: 0
LLC AVERAGE MISS LATENCY: 157.238 cycles
LLC RQ	ACCESS:       1962	FORWARD:          0	MERGED:          0	TO_CACHE:       1962
LLC WQ	ACCESS:          9	FORWARD:          0	MERGED:          0	TO_CACHE:          9

LLC Dense regions hint to LLC: 0

RAW hits: 1490
Loads Generated: 8629977
Loads sent to L1D: 8628486
Stores Generated: 2520
Stores sent to L1D: 2520
Major fault: 0 Minor fault: 247
Allocated PAGES: 247

DRAM Statistics
 CHANNEL 0
 RQ ROW_BUFFER_HIT:        250  ROW_BUFFER_MISS:       1709
 DBUS_CONGESTED:          0
 WQ ROW_BUFFER_HIT:          0  ROW_BUFFER_MISS:          0  FULL:          0

 AVG_CONGESTED_CYCLE: -
 All warmup complete: 2
Channel 0 Bank busy for read cycles: 0
Channel 0 Bank busy for write cycles: 0
Channel 0
Rank 0
0banks busy for read cycles: 36391549
0banks busy for write cycles: 0
1banks busy for read cycles: 268850
1banks busy for write cycles: 0
2banks busy for read cycles: 0
2banks busy for write cycles: 0
3banks busy for read cycles: 0
3banks busy for write cycles: 0
4banks busy for read cycles: 0
4banks busy for write cycles: 0
5banks busy for read cycles: 0
5banks busy for write cycles: 0
6banks busy for read cycles: 0
6banks busy for write cycles: 0
7banks busy for read cycles: 0
7banks busy for write cycles: 0
8banks busy for read cycles: 0
8banks busy for write cycles: 0

CPU 0 Branch Prediction Accuracy: 99.6977% MPKI: 0.31292 Average ROB Occupancy at Mispredict: 38.5313
Branch types
NOT_BRANCH: 44824684 89.6494%
BRANCH_DIRECT_JUMP: 281 0.000562%
BRANCH_INDIRECT: 0 0%
BRANCH_CONDITIONAL: 5174833 10.3497%
BRANCH_DIRECT_CALL: 0 0%
BRANCH_INDIRECT_CALL: 0 0%
BRANCH_RETURN: 0 0%
BRANCH_OTHER: 0 0%

DRAM PAGES: 1048576
Allocated PAGES: 247
