
*** ChampSim Multicore Out-of-Order Simulator ***

Warmup Instructions: 50000000
Simulation Instructions: 50000000
Number of CPUs: 1
LLC sets: 2048
LLC ways: 16
Off-chip DRAM Size: 4096 MB Channels: 1 Width: 64-bit Data Rate: 6400 MT/s
CPU 0 runs ./traces/SPEC-CPU2017/638.imagick_s-10316B.champsimtrace.xz
.xz
CPU 0 Bimodal branch predictor
BTB has LRU replacement policy
ITLB has LRU replacement policy
DTLB has LRU replacement policy
STLB has LRU replacement policy
L1I has LRU replacement policy
L1D has LRU replacement policy
L2C has LRU replacement policy
LLC has LRU replacement policy
Heartbeat CPU 0 instructions: 10000000 cycles: 2592001 heartbeat IPC: 3.85802 cumulative IPC: 3.85802 (Simulation time: 0 hr 0 min 49 sec) 
Heartbeat CPU 0 instructions: 20000000 cycles: 5183450 heartbeat IPC: 3.85884 cumulative IPC: 3.85843 (Simulation time: 0 hr 1 min 48 sec) 
Heartbeat CPU 0 instructions: 30000002 cycles: 7774949 heartbeat IPC: 3.85877 cumulative IPC: 3.85855 (Simulation time: 0 hr 2 min 44 sec) 
Heartbeat CPU 0 instructions: 40000000 cycles: 10366499 heartbeat IPC: 3.85869 cumulative IPC: 3.85858 (Simulation time: 0 hr 3 min 40 sec) 
Heartbeat CPU 0 instructions: 50000003 cycles: 12958066 heartbeat IPC: 3.85867 cumulative IPC: 3.8586 (Simulation time: 0 hr 4 min 34 sec) 

Warmup complete CPU 0 instructions: 50000003 cycles: 12958066 (Simulation time: 0 hr 4 min 34 sec) 

Heartbeat CPU 0 instructions: 60000000 cycles: 20270458 heartbeat IPC: 1.36754 cumulative IPC: 1.36754 (Simulation time: 0 hr 5 min 23 sec) 
Heartbeat CPU 0 instructions: 70000000 cycles: 27582337 heartbeat IPC: 1.36764 cumulative IPC: 1.36759 (Simulation time: 0 hr 6 min 11 sec) 
Heartbeat CPU 0 instructions: 80000000 cycles: 34895045 heartbeat IPC: 1.36748 cumulative IPC: 1.36755 (Simulation time: 0 hr 6 min 59 sec) 
Heartbeat CPU 0 instructions: 90000003 cycles: 42206986 heartbeat IPC: 1.36763 cumulative IPC: 1.36757 (Simulation time: 0 hr 7 min 47 sec) 
Heartbeat CPU 0 instructions: 100000000 cycles: 49519069 heartbeat IPC: 1.3676 cumulative IPC: 1.36758 (Simulation time: 0 hr 8 min 36 sec) 
Finished CPU 0 instructions: 50000000 cycles: 36561020 cumulative IPC: 1.36758 (Simulation time: 0 hr 8 min 36 sec) 

ChampSim completed all CPUs

Region of Interest Statistics

CPU 0 cumulative IPC: 1.36758 instructions: 50000000 cycles: 36561020
ITLB TOTAL     ACCESS:    6893167  HIT:    6893167  MISS:          0  HIT %:        100  MISS %:          0   MPKI: 0
ITLB LOAD TRANSLATION ACCESS:    6893167  HIT:    6893167  MISS:          0  HIT %:        100  MISS %:          0   MPKI: 0
ITLB PREFETCH  REQUESTED:          0  ISSUED:          0  USEFUL:          0  USELESS:          0
ITLB USEFUL LOAD PREFETCHES:          0 PREFETCH ISSUED TO LOWER LEVEL:          0  ACCURACY: -nan
ITLB TIMELY PREFETCHES:          0 LATE PREFETCHES: 0 DROPPED PREFETCHES: 0
ITLB PREFETCHES SAME FILL-ORIGIN LEVEL: 0 DIFFERENT FILL-ORIGIN LEVEL: 0
ITLB AVERAGE MISS LATENCY: -nan cycles
ITLB RQ	ACCESS:    8627441	FORWARD:          0	MERGED:    1734274	TO_CACHE:    6893167

DTLB TOTAL     ACCESS:    3742518  HIT:    3719300  MISS:      23218  HIT %:    99.3796  MISS %:   0.620384   MPKI: 0.46436
DTLB LOAD TRANSLATION ACCESS:    3742518  HIT:    3719300  MISS:      23218  HIT %:    99.3796  MISS %:   0.620384   MPKI: 0.46436
DTLB PREFETCH  REQUESTED:          0  ISSUED:          0  USEFUL:          0  USELESS:          0
DTLB USEFUL LOAD PREFETCHES:          0 PREFETCH ISSUED TO LOWER LEVEL:          0  ACCURACY: -nan
DTLB TIMELY PREFETCHES:          0 LATE PREFETCHES: 0 DROPPED PREFETCHES: 0
DTLB PREFETCHES SAME FILL-ORIGIN LEVEL: 0 DIFFERENT FILL-ORIGIN LEVEL: 0
DTLB AVERAGE MISS LATENCY: 9.22694 cycles
DTLB RQ	ACCESS:    3759870	FORWARD:          0	MERGED:      17191	TO_CACHE:    3742679

STLB TOTAL     ACCESS:     145476  HIT:     145445  MISS:         31  HIT %:    99.9787  MISS %:  0.0213094   MPKI: 0.00062
STLB LOAD TRANSLATION ACCESS:      23218  HIT:      23187  MISS:         31  HIT %:    99.8665  MISS %:   0.133517   MPKI: 0.00062
STLB TRANSLATION FROM L1D PREFETCHER ACCESS:     122258  HIT:     122258  MISS:          0  HIT %:        100  MISS %:          0   MPKI: 0
STLB PREFETCH  REQUESTED:          0  ISSUED:          0  USEFUL:          0  USELESS:          0
STLB USEFUL LOAD PREFETCHES:          0 PREFETCH ISSUED TO LOWER LEVEL:          0  ACCURACY: -nan
STLB TIMELY PREFETCHES:          0 LATE PREFETCHES: 0 DROPPED PREFETCHES: 0
STLB PREFETCHES SAME FILL-ORIGIN LEVEL: 0 DIFFERENT FILL-ORIGIN LEVEL: 0
STLB AVERAGE MISS LATENCY: 156.484 cycles
STLB RQ	ACCESS:     468512	FORWARD:          0	MERGED:     323036	TO_CACHE:     145476

STLB Hit, L1D data hit: 0
STLB Hit, L2C data hit: 0
STLB Hit, LLC data hit: 0
STLB Hit, LLC data miss: 0
STLB STLB hints to L2: 0
L1D TOTAL     ACCESS:    4175193  HIT:    3665763  MISS:     509430  HIT %:    87.7986  MISS %:    12.2014   MPKI: 10.1886
L1D LOAD      ACCESS:    3728642  HIT:    3617830  MISS:     110812  HIT %:    97.0281  MISS %:    2.97191   MPKI: 2.21624
L1D RFO       ACCESS:       2283  HIT:       1986  MISS:        297  HIT %:    86.9908  MISS %:    13.0092   MPKI: 0.00594
L1D PREFETCH  ACCESS:     444268  HIT:      45947  MISS:     398321  HIT %:    10.3422  MISS %:    89.6578   MPKI: 7.96642
AGUS PREFETCH L1 MISS: 0
L1D PREFETCH  REQUESTED:     906223  ISSUED:     890588  USEFUL:     333889  USELESS:      64451
L1D USEFUL LOAD PREFETCHES:     333889 PREFETCH ISSUED TO LOWER LEVEL:     398458  ACCURACY: 83.7953
L1D TIMELY PREFETCHES:     333889 LATE PREFETCHES: 137 DROPPED PREFETCHES: 0
L1D PREFETCHES SAME FILL-ORIGIN LEVEL: 398458 DIFFERENT FILL-ORIGIN LEVEL: 0
L1D AVERAGE MISS LATENCY: 16.8049 cycles
L1D RQ	ACCESS:    8628487	FORWARD:          0	MERGED:    4870964	TO_CACHE:    3757466
L1D WQ	ACCESS:       2520	FORWARD:         57	MERGED:        116	TO_CACHE:       2404
L1D PQ	ACCESS:     445294	FORWARD:          0	MERGED:          0	TO_CACHE:     445294

L1D UNIQUE REGIONS ACCESSED: 0
L1D REGIONS CONFLICTS: 0
L1D Cross Page Prefetch Requests: 61856
L1D Same Page Prefetch Requests: 836872
L1D ROI Sum of L1D PQ occupancy: 6284258
L1D PREFETCHES PUSHED FROM L2C: 0
L1I TOTAL     ACCESS:    8627439  HIT:    8627439  MISS:          0  HIT %:        100  MISS %:          0   MPKI: 0
L1I LOAD      ACCESS:    8627439  HIT:    8627439  MISS:          0  HIT %:        100  MISS %:          0   MPKI: 0
L1I PREFETCH  REQUESTED:          0  ISSUED:          0  USEFUL:          0  USELESS:          0
L1I USEFUL LOAD PREFETCHES:          0 PREFETCH ISSUED TO LOWER LEVEL:          0  ACCURACY: -nan
L1I TIMELY PREFETCHES:          0 LATE PREFETCHES: 0 DROPPED PREFETCHES: 0
L1I PREFETCHES SAME FILL-ORIGIN LEVEL: 0 DIFFERENT FILL-ORIGIN LEVEL: 0
L1I AVERAGE MISS LATENCY: -nan cycles
L1I RQ	ACCESS:   13786432	FORWARD:          0	MERGED:    5158991	TO_CACHE:    8627441

BTB TOTAL     ACCESS:    3455324  HIT:    3455300  MISS:         24  HIT %:    99.9993  MISS %: 0.00069458   MPKI: 0.00048
BTB BRANCH_DIRECT_JUMP	ACCESS:        281  HIT:        278  MISS:          3
BTB BRANCH_INDIRECT	ACCESS:          0  HIT:          0  MISS:          0
BTB BRANCH_CONDITIONAL	ACCESS:    3455043  HIT:    3455022  MISS:         21
BTB BRANCH_DIRECT_CALL	ACCESS:          0  HIT:          0  MISS:          0
BTB BRANCH_INDIRECT_CALL	ACCESS:          0  HIT:          0  MISS:          0
BTB BRANCH_RETURN	ACCESS:          0  HIT:          0  MISS:          0
BTB BRANCH_OTHER ACCESS:          0  HIT:          0  MISS:          0

L2C TOTAL     ACCESS:     510178  HIT:     508074  MISS:       2104  HIT %:    99.5876  MISS %:   0.412405   MPKI: 0.04208
L2C LOAD      ACCESS:     110675  HIT:     110593  MISS:         82  HIT %:    99.9259  MISS %:  0.0740908   MPKI: 0.00164
L2C DATA LOAD MPKI: 0.00164
L2C INSTRUCTION LOAD MPKI: 0
L2C RFO       ACCESS:        297  HIT:        280  MISS:         17  HIT %:    94.2761  MISS %:    5.72391   MPKI: 0.00034
L2C PREFETCH  ACCESS:     398458  HIT:     396466  MISS:       1992  HIT %:    99.5001  MISS %:   0.499927   MPKI: 0.03984
AGUS PREFETCH L1 MISS: 0
L2C DATA PREFETCH MPKI: 0.03984
L2C INSTRUCTION PREFETCH MPKI: 0
L2C WRITEBACK ACCESS:        717  HIT:        717  MISS:          0  HIT %:        100  MISS %:          0   MPKI: 0
L2C LOAD TRANSLATION ACCESS:         31  HIT:         18  MISS:         13  HIT %:    58.0645  MISS %:    41.9355   MPKI: 0.00026
L2C PREFETCH  REQUESTED:          0  ISSUED:          0  USEFUL:       1882  USELESS:        339
L2C USEFUL LOAD PREFETCHES:       1882 PREFETCH ISSUED TO LOWER LEVEL:       1992  ACCURACY: 94.4779
L2C TIMELY PREFETCHES:       1882 LATE PREFETCHES: 0 DROPPED PREFETCHES: 0
L2C PREFETCHES SAME FILL-ORIGIN LEVEL: 0 DIFFERENT FILL-ORIGIN LEVEL: 0
L2C AVERAGE MISS LATENCY: 182.09 cycles
L2C RQ	ACCESS:     111003	FORWARD:          0	MERGED:          0	TO_CACHE:     111003
L2C WQ	ACCESS:        717	FORWARD:          0	MERGED:          0	TO_CACHE:        717
L2C PQ	ACCESS:     398458	FORWARD:          0	MERGED:          0	TO_CACHE:     398458

L2C Instructions Evicting Data 0
L2C Translations Evicting Data 11
L2C Data Evicting Data 808
L2C Instructions Evicting Instructions 0
L2C Translations Evicting Instructions 0
L2C Data Evicting Instructions 9
L2C Instructions Evicting Translations 0
L2C Translations Evicting Translations 0
L2C Data Evicting Translations 45
L2C Dense regions hint from L2: 0
PSCL5 TOTAL     ACCESS:         31  HIT:         31  MISS:          0  HIT %:        100  MISS %:          0   MPKI: 0
PSCL5 LOAD TRANSLATION ACCESS:         31  HIT:         31  MISS:          0  HIT %:        100  MISS %:          0   MPKI: 0
PSCL5 PREFETCH  REQUESTED:          0  ISSUED:          0  USEFUL:          0  USELESS:          0
PSCL5 USEFUL LOAD PREFETCHES:          0 PREFETCH ISSUED TO LOWER LEVEL:          0  ACCURACY: -nan
PSCL5 TIMELY PREFETCHES:          0 LATE PREFETCHES: 0 DROPPED PREFETCHES: 0
PSCL5 PREFETCHES SAME FILL-ORIGIN LEVEL: 0 DIFFERENT FILL-ORIGIN LEVEL: 0

PSCL4 TOTAL     ACCESS:         31  HIT:         31  MISS:          0  HIT %:        100  MISS %:          0   MPKI: 0
PSCL4 LOAD TRANSLATION ACCESS:         31  HIT:         31  MISS:          0  HIT %:        100  MISS %:          0   MPKI: 0
PSCL4 PREFETCH  REQUESTED:          0  ISSUED:          0  USEFUL:          0  USELESS:          0
PSCL4 USEFUL LOAD PREFETCHES:          0 PREFETCH ISSUED TO LOWER LEVEL:          0  ACCURACY: -nan
PSCL4 TIMELY PREFETCHES:          0 LATE PREFETCHES: 0 DROPPED PREFETCHES: 0
PSCL4 PREFETCHES SAME FILL-ORIGIN LEVEL: 0 DIFFERENT FILL-ORIGIN LEVEL: 0

PSCL3 TOTAL     ACCESS:         31  HIT:         31  MISS:          0  HIT %:        100  MISS %:          0   MPKI: 0
PSCL3 LOAD TRANSLATION ACCESS:         31  HIT:         31  MISS:          0  HIT %:        100  MISS %:          0   MPKI: 0
PSCL3 PREFETCH  REQUESTED:          0  ISSUED:          0  USEFUL:          0  USELESS:          0
PSCL3 USEFUL LOAD PREFETCHES:          0 PREFETCH ISSUED TO LOWER LEVEL:          0  ACCURACY: -nan
PSCL3 TIMELY PREFETCHES:          0 LATE PREFETCHES: 0 DROPPED PREFETCHES: 0
PSCL3 PREFETCHES SAME FILL-ORIGIN LEVEL: 0 DIFFERENT FILL-ORIGIN LEVEL: 0

PSCL2 TOTAL     ACCESS:         31  HIT:         31  MISS:          0  HIT %:        100  MISS %:          0   MPKI: 0
PSCL2 LOAD TRANSLATION ACCESS:         31  HIT:         31  MISS:          0  HIT %:        100  MISS %:          0   MPKI: 0
PSCL2 PREFETCH  REQUESTED:          0  ISSUED:          0  USEFUL:          0  USELESS:          0
PSCL2 USEFUL LOAD PREFETCHES:          0 PREFETCH ISSUED TO LOWER LEVEL:          0  ACCURACY: -nan
PSCL2 TIMELY PREFETCHES:          0 LATE PREFETCHES: 0 DROPPED PREFETCHES: 0
PSCL2 PREFETCHES SAME FILL-ORIGIN LEVEL: 0 DIFFERENT FILL-ORIGIN LEVEL: 0

LLC TOTAL     ACCESS:       2112  HIT:         89  MISS:       2023  HIT %:    4.21402  MISS %:     95.786   MPKI: 0.04046
LLC LOAD      ACCESS:         82  HIT:          0  MISS:         82  HIT %:          0  MISS %:        100   MPKI: 0.00164
LLC RFO       ACCESS:         17  HIT:          0  MISS:         17  HIT %:          0  MISS %:        100   MPKI: 0.00034
LLC PREFETCH  ACCESS:       1992  HIT:         74  MISS:       1918  HIT %:    3.71486  MISS %:    96.2851   MPKI: 0.03836
AGUS PREFETCH L1 MISS: 0
LLC WRITEBACK ACCESS:          8  HIT:          8  MISS:          0  HIT %:        100  MISS %:          0   MPKI: 0
LLC LOAD TRANSLATION ACCESS:         13  HIT:          7  MISS:          6  HIT %:    53.8462  MISS %:    46.1538   MPKI: 0.00012
LLC PREFETCH  REQUESTED:          0  ISSUED:          0  USEFUL:          0  USELESS:          0
LLC USEFUL LOAD PREFETCHES:          0 PREFETCH ISSUED TO LOWER LEVEL:       1918  ACCURACY: 0
LLC TIMELY PREFETCHES:          0 LATE PREFETCHES: 0 DROPPED PREFETCHES: 0
LLC PREFETCHES SAME FILL-ORIGIN LEVEL: 0 DIFFERENT FILL-ORIGIN LEVEL: 0
LLC AVERAGE MISS LATENCY: 158.18 cycles
LLC RQ	ACCESS:        112	FORWARD:          0	MERGED:          0	TO_CACHE:        112
LLC WQ	ACCESS:          8	FORWARD:          0	MERGED:          0	TO_CACHE:          8
LLC PQ	ACCESS:       1992	FORWARD:          0	MERGED:          0	TO_CACHE:       1992

LLC Dense regions hint to LLC: 0

RAW hits: 1485
Loads Generated: 8629975
Loads sent to L1D: 8628487
Stores Generated: 2520
Stores sent to L1D: 2520
Major fault: 0 Minor fault: 247
Allocated PAGES: 247

stream: 
stream:times selected: 218266
stream:pref_filled: 578269
stream:pref_useful: 473874
stream:pref_late: 33
stream:misses: 26378
stream:misses_by_poll: 0

CS: 
CS:times selected: 18466
CS:pref_filled: 25456
CS:pref_useful: 23143
CS:pref_late: 1
CS:misses: 18399
CS:misses_by_poll: 20

CPLX: 
CPLX:times selected: 196486
CPLX:pref_filled: 15406
CPLX:pref_useful: 9253
CPLX:pref_late: 2
CPLX:misses: 199521
CPLX:misses_by_poll: 8

NL_L1: 
NL:times selected: 2180
NL:pref_filled: 1141
NL:pref_useful: 968
NL:pref_late: 0
NL:misses: 3187
NL:misses_by_poll: 0

Coverage: 75.0817
total selections: 435398
total_filled: 398321
total_useful: 333889
total_late: 136
total_polluted: 28
total_misses_after_warmup: 139636
conflicts: 28

test: 41624
ISB Prefetcher final stats
Training Unit Size: 8
Addr table size: 6647 6647


Triggers: 218267
No Prediction: 25113 11.5056
Stream end: 188852
No translation: 192166308 88041.9
Predictions: 178090 81.5927


Stream divergence: 59572 27.2932
Stream divergence -- new stream: 0

DRAM Statistics
 CHANNEL 0
 RQ ROW_BUFFER_HIT:        245  ROW_BUFFER_MISS:       1778
 DBUS_CONGESTED:          0
 WQ ROW_BUFFER_HIT:          0  ROW_BUFFER_MISS:          0  FULL:          0

 AVG_CONGESTED_CYCLE: -
 All warmup complete: 2
Channel 0 Bank busy for read cycles: 0
Channel 0 Bank busy for write cycles: 0
Channel 0
Rank 0
0banks busy for read cycles: 36319945
0banks busy for write cycles: 0
1banks busy for read cycles: 212394
1banks busy for write cycles: 0
2banks busy for read cycles: 22736
2banks busy for write cycles: 0
3banks busy for read cycles: 3943
3banks busy for write cycles: 0
4banks busy for read cycles: 985
4banks busy for write cycles: 0
5banks busy for read cycles: 840
5banks busy for write cycles: 0
6banks busy for read cycles: 131
6banks busy for write cycles: 0
7banks busy for read cycles: 47
7banks busy for write cycles: 0
8banks busy for read cycles: 0
8banks busy for write cycles: 0

CPU 0 Branch Prediction Accuracy: 99.6977% MPKI: 0.31292 Average ROB Occupancy at Mispredict: 35.6593
Branch types
NOT_BRANCH: 44824666 89.6493%
BRANCH_DIRECT_JUMP: 281 0.000562%
BRANCH_INDIRECT: 0 0%
BRANCH_CONDITIONAL: 5174833 10.3497%
BRANCH_DIRECT_CALL: 0 0%
BRANCH_INDIRECT_CALL: 0 0%
BRANCH_RETURN: 0 0%
BRANCH_OTHER: 0 0%

DRAM PAGES: 1048576
Allocated PAGES: 247
