
*** ChampSim Multicore Out-of-Order Simulator ***

Warmup Instructions: 50000000
Simulation Instructions: 50000000
Number of CPUs: 1
LLC sets: 2048
LLC ways: 16
Off-chip DRAM Size: 4096 MB Channels: 1 Width: 64-bit Data Rate: 6400 MT/s
CPU 0 runs ./traces/SPEC-CPU2017/641.leela_s-1052B.champsimtrace.xz
.xz
CPU 0 Bimodal branch predictor
BTB has LRU replacement policy
ITLB has LRU replacement policy
DTLB has LRU replacement policy
STLB has LRU replacement policy
L1I has LRU replacement policy
L1D has LRU replacement policy
L2C has LRU replacement policy
LLC has LRU replacement policy
Heartbeat CPU 0 instructions: 10000003 cycles: 3212860 heartbeat IPC: 3.11249 cumulative IPC: 3.11249 (Simulation time: 0 hr 11 min 58 sec) 
Heartbeat CPU 0 instructions: 20000000 cycles: 6425951 heartbeat IPC: 3.11227 cumulative IPC: 3.11238 (Simulation time: 0 hr 24 min 28 sec) 
Heartbeat CPU 0 instructions: 30000003 cycles: 9637694 heartbeat IPC: 3.11357 cumulative IPC: 3.11278 (Simulation time: 0 hr 36 min 45 sec) 
Heartbeat CPU 0 instructions: 40000000 cycles: 12849273 heartbeat IPC: 3.11373 cumulative IPC: 3.11302 (Simulation time: 0 hr 48 min 42 sec) 
Heartbeat CPU 0 instructions: 50000003 cycles: 16065083 heartbeat IPC: 3.10964 cumulative IPC: 3.11234 (Simulation time: 0 hr 59 min 11 sec) 

Warmup complete CPU 0 instructions: 50000003 cycles: 16065083 (Simulation time: 0 hr 59 min 11 sec) 

Heartbeat CPU 0 instructions: 60000000 cycles: 44796713 heartbeat IPC: 0.348048 cumulative IPC: 0.348048 (Simulation time: 1 hr 2 min 2 sec) 
Heartbeat CPU 0 instructions: 70000003 cycles: 73351439 heartbeat IPC: 0.350205 cumulative IPC: 0.349123 (Simulation time: 1 hr 4 min 31 sec) 
Heartbeat CPU 0 instructions: 80000000 cycles: 102115401 heartbeat IPC: 0.347657 cumulative IPC: 0.348633 (Simulation time: 1 hr 6 min 44 sec) 
Heartbeat CPU 0 instructions: 90000000 cycles: 131183424 heartbeat IPC: 0.344021 cumulative IPC: 0.347468 (Simulation time: 1 hr 9 min 0 sec) 
Heartbeat CPU 0 instructions: 100000000 cycles: 160125770 heartbeat IPC: 0.345515 cumulative IPC: 0.347076 (Simulation time: 1 hr 11 min 16 sec) 
Finished CPU 0 instructions: 50000000 cycles: 144060697 cumulative IPC: 0.347076 (Simulation time: 1 hr 11 min 16 sec) 

ChampSim completed all CPUs

Region of Interest Statistics

CPU 0 cumulative IPC: 0.347076 instructions: 50000000 cycles: 144060697
ITLB TOTAL     ACCESS:    8668777  HIT:    8668777  MISS:          0  HIT %:        100  MISS %:          0   MPKI: 0
ITLB LOAD TRANSLATION ACCESS:    8668777  HIT:    8668777  MISS:          0  HIT %:        100  MISS %:          0   MPKI: 0
ITLB PREFETCH  REQUESTED:          0  ISSUED:          0  USEFUL:          0  USELESS:          0
ITLB USEFUL LOAD PREFETCHES:          0 PREFETCH ISSUED TO LOWER LEVEL:          0  ACCURACY: -nan
ITLB TIMELY PREFETCHES:          0 LATE PREFETCHES: 0 DROPPED PREFETCHES: 0
ITLB PREFETCHES SAME FILL-ORIGIN LEVEL: 0 DIFFERENT FILL-ORIGIN LEVEL: 0
ITLB AVERAGE MISS LATENCY: -nan cycles
ITLB RQ	ACCESS:    9913307	FORWARD:          0	MERGED:    1244530	TO_CACHE:    8668777

DTLB TOTAL     ACCESS:   13870145  HIT:   13847442  MISS:      22703  HIT %:    99.8363  MISS %:   0.163682   MPKI: 0.45406
DTLB LOAD TRANSLATION ACCESS:   13870145  HIT:   13847442  MISS:      22703  HIT %:    99.8363  MISS %:   0.163682   MPKI: 0.45406
DTLB PREFETCH  REQUESTED:          0  ISSUED:          0  USEFUL:          0  USELESS:          0
DTLB USEFUL LOAD PREFETCHES:          0 PREFETCH ISSUED TO LOWER LEVEL:          0  ACCURACY: -nan
DTLB TIMELY PREFETCHES:          0 LATE PREFETCHES: 0 DROPPED PREFETCHES: 0
DTLB PREFETCHES SAME FILL-ORIGIN LEVEL: 0 DIFFERENT FILL-ORIGIN LEVEL: 0
DTLB AVERAGE MISS LATENCY: 9.4684 cycles
DTLB RQ	ACCESS:   15976725	FORWARD:          0	MERGED:    2106122	TO_CACHE:   13870603

STLB TOTAL     ACCESS:     770122  HIT:     770062  MISS:         60  HIT %:    99.9922  MISS %: 0.00779097   MPKI: 0.0012
STLB LOAD TRANSLATION ACCESS:      22703  HIT:      22643  MISS:         60  HIT %:    99.7357  MISS %:   0.264282   MPKI: 0.0012
STLB TRANSLATION FROM L1D PREFETCHER ACCESS:     747419  HIT:     747419  MISS:          0  HIT %:        100  MISS %:          0   MPKI: 0
STLB PREFETCH  REQUESTED:          0  ISSUED:          0  USEFUL:          0  USELESS:          0
STLB USEFUL LOAD PREFETCHES:          0 PREFETCH ISSUED TO LOWER LEVEL:          0  ACCURACY: -nan
STLB TIMELY PREFETCHES:          0 LATE PREFETCHES: 0 DROPPED PREFETCHES: 0
STLB PREFETCHES SAME FILL-ORIGIN LEVEL: 0 DIFFERENT FILL-ORIGIN LEVEL: 0
STLB AVERAGE MISS LATENCY: 188 cycles
STLB RQ	ACCESS:    1160699	FORWARD:          0	MERGED:     390577	TO_CACHE:     770122

STLB Hit, L1D data hit: 0
STLB Hit, L2C data hit: 0
STLB Hit, LLC data hit: 0
STLB Hit, LLC data miss: 0
STLB STLB hints to L2: 0
L1D TOTAL     ACCESS:   17088460  HIT:   16915564  MISS:     172896  HIT %:    98.9882  MISS %:    1.01177   MPKI: 3.45792
L1D LOAD      ACCESS:   10272227  HIT:   10221312  MISS:      50915  HIT %:    99.5043  MISS %:   0.495657   MPKI: 1.0183
L1D RFO       ACCESS:    5681959  HIT:    5666229  MISS:      15730  HIT %:    99.7232  MISS %:   0.276841   MPKI: 0.3146
L1D PREFETCH  ACCESS:    1134274  HIT:    1028023  MISS:     106251  HIT %:    90.6327  MISS %:    9.36731   MPKI: 2.12502
AGUS PREFETCH L1 MISS: 0
L1D PREFETCH  REQUESTED:    2285826  ISSUED:    2276012  USEFUL:      65664  USELESS:      40528
L1D USEFUL LOAD PREFETCHES:      65664 PREFETCH ISSUED TO LOWER LEVEL:     108069  ACCURACY: 60.7612
L1D TIMELY PREFETCHES:      65664 LATE PREFETCHES: 1801 DROPPED PREFETCHES: 0
L1D PREFETCHES SAME FILL-ORIGIN LEVEL: 108069 DIFFERENT FILL-ORIGIN LEVEL: 0
L1D AVERAGE MISS LATENCY: 16.3099 cycles
L1D RQ	ACCESS:   13201021	FORWARD:          0	MERGED:    2331272	TO_CACHE:   10273375
L1D WQ	ACCESS:    5819015	FORWARD:     596394	MERGED:     115665	TO_CACHE:    5703350
L1D PQ	ACCESS:    1138016	FORWARD:          0	MERGED:          0	TO_CACHE:    1137996

L1D UNIQUE REGIONS ACCESSED: 0
L1D REGIONS CONFLICTS: 0
L1D Cross Page Prefetch Requests: 287781
L1D Same Page Prefetch Requests: 1869378
L1D ROI Sum of L1D PQ occupancy: 14838930
L1D PREFETCHES PUSHED FROM L2C: 0
L1I TOTAL     ACCESS:    9912292  HIT:    9908886  MISS:       3406  HIT %:    99.9656  MISS %:  0.0343614   MPKI: 0.06812
L1I LOAD      ACCESS:    9912292  HIT:    9908886  MISS:       3406  HIT %:    99.9656  MISS %:  0.0343614   MPKI: 0.06812
L1I PREFETCH  REQUESTED:          0  ISSUED:          0  USEFUL:          0  USELESS:          0
L1I USEFUL LOAD PREFETCHES:          0 PREFETCH ISSUED TO LOWER LEVEL:          0  ACCURACY: -nan
L1I TIMELY PREFETCHES:          0 LATE PREFETCHES: 0 DROPPED PREFETCHES: 0
L1I PREFETCHES SAME FILL-ORIGIN LEVEL: 0 DIFFERENT FILL-ORIGIN LEVEL: 0
L1I AVERAGE MISS LATENCY: 13 cycles
L1I RQ	ACCESS:   13924864	FORWARD:          0	MERGED:    4011557	TO_CACHE:    9913307

BTB TOTAL     ACCESS:    7956749  HIT:    7380713  MISS:     576036  HIT %:    92.7604  MISS %:    7.23959   MPKI: 11.5207
BTB BRANCH_DIRECT_JUMP	ACCESS:     264171  HIT:     264098  MISS:         73
BTB BRANCH_INDIRECT	ACCESS:        357  HIT:        332  MISS:         25
BTB BRANCH_CONDITIONAL	ACCESS:    4727906  HIT:    4727273  MISS:        633
BTB BRANCH_DIRECT_CALL	ACCESS:    1482157  HIT:    1481883  MISS:        274
BTB BRANCH_INDIRECT_CALL	ACCESS:          0  HIT:          0  MISS:          0
BTB BRANCH_RETURN	ACCESS:    1482158  HIT:     907127  MISS:     575031
BTB BRANCH_OTHER ACCESS:          0  HIT:          0  MISS:          0

L2C TOTAL     ACCESS:     205777  HIT:     204106  MISS:       1671  HIT %:     99.188  MISS %:   0.812044   MPKI: 0.03342
L2C LOAD      ACCESS:      52516  HIT:      51946  MISS:        570  HIT %:    98.9146  MISS %:    1.08538   MPKI: 0.0114
L2C DATA LOAD MPKI: 0.0114
L2C INSTRUCTION LOAD MPKI: 0
L2C RFO       ACCESS:      15713  HIT:      15712  MISS:          1  HIT %:    99.9936  MISS %: 0.00636416   MPKI: 2e-05
L2C PREFETCH  ACCESS:     108066  HIT:     106994  MISS:       1072  HIT %:     99.008  MISS %:   0.991986   MPKI: 0.02144
AGUS PREFETCH L1 MISS: 0
L2C DATA PREFETCH MPKI: 0.02144
L2C INSTRUCTION PREFETCH MPKI: 0
L2C WRITEBACK ACCESS:      29422  HIT:      29421  MISS:          1  HIT %:    99.9966  MISS %: 0.00339882   MPKI: 2e-05
L2C LOAD TRANSLATION ACCESS:         60  HIT:         33  MISS:         27  HIT %:         55  MISS %:         45   MPKI: 0.00054
L2C PREFETCH  REQUESTED:          0  ISSUED:          0  USEFUL:        173  USELESS:        450
L2C USEFUL LOAD PREFETCHES:        173 PREFETCH ISSUED TO LOWER LEVEL:       1072  ACCURACY: 16.1381
L2C TIMELY PREFETCHES:        173 LATE PREFETCHES: 0 DROPPED PREFETCHES: 0
L2C PREFETCHES SAME FILL-ORIGIN LEVEL: 0 DIFFERENT FILL-ORIGIN LEVEL: 0
L2C AVERAGE MISS LATENCY: 129.917 cycles
L2C RQ	ACCESS:      68293	FORWARD:          0	MERGED:          0	TO_CACHE:      68289
L2C WQ	ACCESS:      29422	FORWARD:          7	MERGED:          0	TO_CACHE:      29422
L2C PQ	ACCESS:     108069	FORWARD:          0	MERGED:          0	TO_CACHE:     108066

L2C Instructions Evicting Data 0
L2C Translations Evicting Data 8
L2C Data Evicting Data 872
L2C Instructions Evicting Instructions 0
L2C Translations Evicting Instructions 1
L2C Data Evicting Instructions 40
L2C Instructions Evicting Translations 0
L2C Translations Evicting Translations 0
L2C Data Evicting Translations 27
L2C Dense regions hint from L2: 0
PSCL5 TOTAL     ACCESS:         60  HIT:         60  MISS:          0  HIT %:        100  MISS %:          0   MPKI: 0
PSCL5 LOAD TRANSLATION ACCESS:         60  HIT:         60  MISS:          0  HIT %:        100  MISS %:          0   MPKI: 0
PSCL5 PREFETCH  REQUESTED:          0  ISSUED:          0  USEFUL:          0  USELESS:          0
PSCL5 USEFUL LOAD PREFETCHES:          0 PREFETCH ISSUED TO LOWER LEVEL:          0  ACCURACY: -nan
PSCL5 TIMELY PREFETCHES:          0 LATE PREFETCHES: 0 DROPPED PREFETCHES: 0
PSCL5 PREFETCHES SAME FILL-ORIGIN LEVEL: 0 DIFFERENT FILL-ORIGIN LEVEL: 0

PSCL4 TOTAL     ACCESS:         60  HIT:         60  MISS:          0  HIT %:        100  MISS %:          0   MPKI: 0
PSCL4 LOAD TRANSLATION ACCESS:         60  HIT:         60  MISS:          0  HIT %:        100  MISS %:          0   MPKI: 0
PSCL4 PREFETCH  REQUESTED:          0  ISSUED:          0  USEFUL:          0  USELESS:          0
PSCL4 USEFUL LOAD PREFETCHES:          0 PREFETCH ISSUED TO LOWER LEVEL:          0  ACCURACY: -nan
PSCL4 TIMELY PREFETCHES:          0 LATE PREFETCHES: 0 DROPPED PREFETCHES: 0
PSCL4 PREFETCHES SAME FILL-ORIGIN LEVEL: 0 DIFFERENT FILL-ORIGIN LEVEL: 0

PSCL3 TOTAL     ACCESS:         60  HIT:         60  MISS:          0  HIT %:        100  MISS %:          0   MPKI: 0
PSCL3 LOAD TRANSLATION ACCESS:         60  HIT:         60  MISS:          0  HIT %:        100  MISS %:          0   MPKI: 0
PSCL3 PREFETCH  REQUESTED:          0  ISSUED:          0  USEFUL:          0  USELESS:          0
PSCL3 USEFUL LOAD PREFETCHES:          0 PREFETCH ISSUED TO LOWER LEVEL:          0  ACCURACY: -nan
PSCL3 TIMELY PREFETCHES:          0 LATE PREFETCHES: 0 DROPPED PREFETCHES: 0
PSCL3 PREFETCHES SAME FILL-ORIGIN LEVEL: 0 DIFFERENT FILL-ORIGIN LEVEL: 0

PSCL2 TOTAL     ACCESS:         60  HIT:         60  MISS:          0  HIT %:        100  MISS %:          0   MPKI: 0
PSCL2 LOAD TRANSLATION ACCESS:         60  HIT:         60  MISS:          0  HIT %:        100  MISS %:          0   MPKI: 0
PSCL2 PREFETCH  REQUESTED:          0  ISSUED:          0  USEFUL:          0  USELESS:          0
PSCL2 USEFUL LOAD PREFETCHES:          0 PREFETCH ISSUED TO LOWER LEVEL:          0  ACCURACY: -nan
PSCL2 TIMELY PREFETCHES:          0 LATE PREFETCHES: 0 DROPPED PREFETCHES: 0
PSCL2 PREFETCHES SAME FILL-ORIGIN LEVEL: 0 DIFFERENT FILL-ORIGIN LEVEL: 0

LLC TOTAL     ACCESS:       1752  HIT:        551  MISS:       1201  HIT %:    31.4498  MISS %:    68.5502   MPKI: 0.02402
LLC LOAD      ACCESS:        570  HIT:        263  MISS:        307  HIT %:    46.1404  MISS %:    53.8596   MPKI: 0.00614
LLC RFO       ACCESS:          1  HIT:          0  MISS:          1  HIT %:          0  MISS %:        100   MPKI: 2e-05
LLC PREFETCH  ACCESS:       1072  HIT:        202  MISS:        870  HIT %:    18.8433  MISS %:    81.1567   MPKI: 0.0174
AGUS PREFETCH L1 MISS: 0
LLC WRITEBACK ACCESS:         82  HIT:         82  MISS:          0  HIT %:        100  MISS %:          0   MPKI: 0
LLC LOAD TRANSLATION ACCESS:         27  HIT:          4  MISS:         23  HIT %:    14.8148  MISS %:    85.1852   MPKI: 0.00046
LLC PREFETCH  REQUESTED:          0  ISSUED:          0  USEFUL:         30  USELESS:          0
LLC USEFUL LOAD PREFETCHES:         30 PREFETCH ISSUED TO LOWER LEVEL:        870  ACCURACY: 3.44828
LLC TIMELY PREFETCHES:         30 LATE PREFETCHES: 0 DROPPED PREFETCHES: 0
LLC PREFETCHES SAME FILL-ORIGIN LEVEL: 0 DIFFERENT FILL-ORIGIN LEVEL: 0
LLC AVERAGE MISS LATENCY: 138.516 cycles
LLC RQ	ACCESS:        598	FORWARD:          0	MERGED:          0	TO_CACHE:        598
LLC WQ	ACCESS:         82	FORWARD:          0	MERGED:          0	TO_CACHE:         82
LLC PQ	ACCESS:       1072	FORWARD:          0	MERGED:          0	TO_CACHE:       1072

LLC Dense regions hint to LLC: 0

RAW hits: 366991
Loads Generated: 13568012
Loads sent to L1D: 13201021
Stores Generated: 5819012
Stores sent to L1D: 5819015
Major fault: 0 Minor fault: 510
Allocated PAGES: 510

stream: 
stream:times selected: 3054058
stream:pref_reqs: 3002699
stream:pref_reqs_filtered_out: 1957536
stream:pref_filled: 70640
stream:pref_useful: 32993
stream:pref_late: 792
stream:misses: 3072
stream:misses_by_poll: 0

CS: 
CS:times selected: 217303
CS:pref_reqs: 636547
CS:pref_reqs_filtered_out: 479190
CS:pref_filled: 60893
CS:pref_useful: 50659
CS:pref_late: 444
CS:misses: 2245
CS:misses_by_poll: 31

CPLX: 
CPLX:times selected: 2835430
CPLX:pref_reqs: 887876
CPLX:pref_reqs_filtered_out: 658143
CPLX:pref_filled: 17645
CPLX:pref_useful: 6901
CPLX:pref_late: 79
CPLX:misses: 26004
CPLX:misses_by_poll: 11

ISB: 
ISB:total access:8174363
ISB:times selected:3142918
ISB:canary counter:0
ISB:pref_reqs: 3202543
ISB:pref_reqs_filtered_out: 2445165
ISB:pref_filled: 79698
ISB:pref_useful: 53659
ISB:pref_late: 368
ISB:misses: 1363
ISB:misses_by_poll: 81
ISB:Stream end: 3062641
ISB:No Prediction: 5031445 61.5515
ISB:No translation: 3119279773 38159.3
ISB:Predictions: 748524 9.15697

NL_L1: 
NL:times selected: 16259
NL:pref_reqs: 16259
NL:pref_reqs_filtered_out: 11539
NL:pref_filled: 290
NL:pref_useful: 16
NL:pref_late: 0
NL:misses: 116
NL:misses_by_poll: 0

Coverage: 56.3258
total selections: 9265968
total_filled: 106251
total_useful: 65664
total_late: 1992
total_polluted: 123
total_misses_after_warmup: 52062
conflicts: 4421055

test: 0
Prefetcher final stats
Training Unit Size: 98
Addr table size: 2526 2539
Stream divergence: 12226 0.149565
Stream divergence -- new stream: 0
--------------------------Training unit table ------------------------

DRAM Statistics
 CHANNEL 0
 RQ ROW_BUFFER_HIT:        381  ROW_BUFFER_MISS:        820
 DBUS_CONGESTED:          0
 WQ ROW_BUFFER_HIT:          0  ROW_BUFFER_MISS:          0  FULL:          0

 AVG_CONGESTED_CYCLE: -
 All warmup complete: 2
Channel 0 Bank busy for read cycles: 0
Channel 0 Bank busy for write cycles: 0
Channel 0
Rank 0
0banks busy for read cycles: 143935501
0banks busy for write cycles: 0
1banks busy for read cycles: 111729
1banks busy for write cycles: 0
2banks busy for read cycles: 11246
2banks busy for write cycles: 0
3banks busy for read cycles: 1093
3banks busy for write cycles: 0
4banks busy for read cycles: 1095
4banks busy for write cycles: 0
5banks busy for read cycles: 34
5banks busy for write cycles: 0
6banks busy for read cycles: 0
6banks busy for write cycles: 0
7banks busy for read cycles: 0
7banks busy for write cycles: 0
8banks busy for read cycles: 0
8banks busy for write cycles: 0

CPU 0 Branch Prediction Accuracy: 87.1506% MPKI: 21.5948 Average ROB Occupancy at Mispredict: 15.7786
Branch types
NOT_BRANCH: 41596715 83.1934%
BRANCH_DIRECT_JUMP: 264171 0.528342%
BRANCH_INDIRECT: 357 0.000714%
BRANCH_CONDITIONAL: 5174172 10.3483%
BRANCH_DIRECT_CALL: 1482157 2.96431%
BRANCH_INDIRECT_CALL: 0 0%
BRANCH_RETURN: 1482158 2.96432%
BRANCH_OTHER: 0 0%

DRAM PAGES: 1048576
Allocated PAGES: 510
