
*** ChampSim Multicore Out-of-Order Simulator ***

Warmup Instructions: 50000000
Simulation Instructions: 50000000
Number of CPUs: 1
LLC sets: 2048
LLC ways: 16
Off-chip DRAM Size: 4096 MB Channels: 1 Width: 64-bit Data Rate: 6400 MT/s
CPU 0 runs ./traces/SPEC-CPU2017/641.leela_s-1052B.champsimtrace.xz
.xz
CPU 0 Bimodal branch predictor
BTB has LRU replacement policy
ITLB has LRU replacement policy
DTLB has LRU replacement policy
STLB has LRU replacement policy
L1I has LRU replacement policy
L1D has LRU replacement policy
L2C has LRU replacement policy
LLC has LRU replacement policy
Heartbeat CPU 0 instructions: 10000003 cycles: 3213129 heartbeat IPC: 3.11223 cumulative IPC: 3.11223 (Simulation time: 0 hr 7 min 26 sec) 
Heartbeat CPU 0 instructions: 20000000 cycles: 6426436 heartbeat IPC: 3.11206 cumulative IPC: 3.11214 (Simulation time: 0 hr 17 min 26 sec) 
Heartbeat CPU 0 instructions: 30000003 cycles: 9638404 heartbeat IPC: 3.11336 cumulative IPC: 3.11255 (Simulation time: 0 hr 27 min 33 sec) 
Heartbeat CPU 0 instructions: 40000000 cycles: 12850150 heartbeat IPC: 3.11357 cumulative IPC: 3.1128 (Simulation time: 0 hr 37 min 21 sec) 
Heartbeat CPU 0 instructions: 50000003 cycles: 16066034 heartbeat IPC: 3.10957 cumulative IPC: 3.11216 (Simulation time: 0 hr 46 min 52 sec) 

Warmup complete CPU 0 instructions: 50000003 cycles: 16066034 (Simulation time: 0 hr 46 min 52 sec) 

Heartbeat CPU 0 instructions: 60000000 cycles: 44831694 heartbeat IPC: 0.347637 cumulative IPC: 0.347637 (Simulation time: 0 hr 49 min 7 sec) 
Heartbeat CPU 0 instructions: 70000003 cycles: 73423300 heartbeat IPC: 0.349753 cumulative IPC: 0.348692 (Simulation time: 0 hr 51 min 14 sec) 
Heartbeat CPU 0 instructions: 80000000 cycles: 102225341 heartbeat IPC: 0.347198 cumulative IPC: 0.348192 (Simulation time: 0 hr 53 min 26 sec) 
Heartbeat CPU 0 instructions: 90000000 cycles: 131316374 heartbeat IPC: 0.343749 cumulative IPC: 0.347071 (Simulation time: 0 hr 55 min 21 sec) 
Heartbeat CPU 0 instructions: 100000000 cycles: 160284965 heartbeat IPC: 0.345201 cumulative IPC: 0.346695 (Simulation time: 0 hr 57 min 21 sec) 
Finished CPU 0 instructions: 50000000 cycles: 144218941 cumulative IPC: 0.346695 (Simulation time: 0 hr 57 min 21 sec) 

ChampSim completed all CPUs

Region of Interest Statistics

CPU 0 cumulative IPC: 0.346695 instructions: 50000000 cycles: 144218941
ITLB TOTAL     ACCESS:    8670929  HIT:    8670929  MISS:          0  HIT %:        100  MISS %:          0   MPKI: 0
ITLB LOAD TRANSLATION ACCESS:    8670929  HIT:    8670929  MISS:          0  HIT %:        100  MISS %:          0   MPKI: 0
ITLB PREFETCH  REQUESTED:          0  ISSUED:          0  USEFUL:          0  USELESS:          0
ITLB USEFUL LOAD PREFETCHES:          0 PREFETCH ISSUED TO LOWER LEVEL:          0  ACCURACY: -nan
ITLB TIMELY PREFETCHES:          0 LATE PREFETCHES: 0 DROPPED PREFETCHES: 0
ITLB PREFETCHES SAME FILL-ORIGIN LEVEL: 0 DIFFERENT FILL-ORIGIN LEVEL: 0
ITLB AVERAGE MISS LATENCY: -nan cycles
ITLB RQ	ACCESS:    9915356	FORWARD:          0	MERGED:    1244427	TO_CACHE:    8670929

DTLB TOTAL     ACCESS:   13868077  HIT:   13845374  MISS:      22703  HIT %:    99.8363  MISS %:   0.163707   MPKI: 0.45406
DTLB LOAD TRANSLATION ACCESS:   13868077  HIT:   13845374  MISS:      22703  HIT %:    99.8363  MISS %:   0.163707   MPKI: 0.45406
DTLB PREFETCH  REQUESTED:          0  ISSUED:          0  USEFUL:          0  USELESS:          0
DTLB USEFUL LOAD PREFETCHES:          0 PREFETCH ISSUED TO LOWER LEVEL:          0  ACCURACY: -nan
DTLB TIMELY PREFETCHES:          0 LATE PREFETCHES: 0 DROPPED PREFETCHES: 0
DTLB PREFETCHES SAME FILL-ORIGIN LEVEL: 0 DIFFERENT FILL-ORIGIN LEVEL: 0
DTLB AVERAGE MISS LATENCY: 9.49544 cycles
DTLB RQ	ACCESS:   15973872	FORWARD:          0	MERGED:    2105319	TO_CACHE:   13868553

STLB TOTAL     ACCESS:     539432  HIT:     539372  MISS:         60  HIT %:    99.9889  MISS %:  0.0111228   MPKI: 0.0012
STLB LOAD TRANSLATION ACCESS:      22703  HIT:      22643  MISS:         60  HIT %:    99.7357  MISS %:   0.264282   MPKI: 0.0012
STLB TRANSLATION FROM L1D PREFETCHER ACCESS:     516729  HIT:     516729  MISS:          0  HIT %:        100  MISS %:          0   MPKI: 0
STLB PREFETCH  REQUESTED:          0  ISSUED:          0  USEFUL:          0  USELESS:          0
STLB USEFUL LOAD PREFETCHES:          0 PREFETCH ISSUED TO LOWER LEVEL:          0  ACCURACY: -nan
STLB TIMELY PREFETCHES:          0 LATE PREFETCHES: 0 DROPPED PREFETCHES: 0
STLB PREFETCHES SAME FILL-ORIGIN LEVEL: 0 DIFFERENT FILL-ORIGIN LEVEL: 0
STLB AVERAGE MISS LATENCY: 186.333 cycles
STLB RQ	ACCESS:     692636	FORWARD:          0	MERGED:     153204	TO_CACHE:     539432

STLB Hit, L1D data hit: 0
STLB Hit, L2C data hit: 0
STLB Hit, LLC data hit: 0
STLB Hit, LLC data miss: 0
STLB STLB hints to L2: 0
L1D TOTAL     ACCESS:   16613581  HIT:   16451985  MISS:     161596  HIT %:    99.0273  MISS %:   0.972674   MPKI: 3.23192
L1D LOAD      ACCESS:   10269002  HIT:   10199764  MISS:      69238  HIT %:    99.3258  MISS %:   0.674243   MPKI: 1.38476
L1D RFO       ACCESS:    5682030  HIT:    5666225  MISS:      15805  HIT %:    99.7218  MISS %:   0.278158   MPKI: 0.3161
L1D PREFETCH  ACCESS:     662549  HIT:     585996  MISS:      76553  HIT %:    88.4457  MISS %:    11.5543   MPKI: 1.53106
AGUS PREFETCH L1 MISS: 0
L1D PREFETCH  REQUESTED:    1340324  ISSUED:    1339879  USEFUL:      45775  USELESS:      30731
L1D USEFUL LOAD PREFETCHES:      45775 PREFETCH ISSUED TO LOWER LEVEL:      79952  ACCURACY: 57.2531
L1D TIMELY PREFETCHES:      45775 LATE PREFETCHES: 3392 DROPPED PREFETCHES: 0
L1D PREFETCHES SAME FILL-ORIGIN LEVEL: 79952 DIFFERENT FILL-ORIGIN LEVEL: 0
L1D AVERAGE MISS LATENCY: 16.6162 cycles
L1D RQ	ACCESS:   13195092	FORWARD:          0	MERGED:    2333420	TO_CACHE:   10270517
L1D WQ	ACCESS:    5819015	FORWARD:     591168	MERGED:     115660	TO_CACHE:    5703355
L1D PQ	ACCESS:     669946	FORWARD:          0	MERGED:          0	TO_CACHE:     669933

L1D UNIQUE REGIONS ACCESSED: 0
L1D REGIONS CONFLICTS: 0
L1D Cross Page Prefetch Requests: 0
L1D Same Page Prefetch Requests: 1344186
L1D ROI Sum of L1D PQ occupancy: 8514653
L1D PREFETCHES PUSHED FROM L2C: 0
L1I TOTAL     ACCESS:    9914341  HIT:    9910935  MISS:       3406  HIT %:    99.9656  MISS %:  0.0343543   MPKI: 0.06812
L1I LOAD      ACCESS:    9914341  HIT:    9910935  MISS:       3406  HIT %:    99.9656  MISS %:  0.0343543   MPKI: 0.06812
L1I PREFETCH  REQUESTED:          0  ISSUED:          0  USEFUL:          0  USELESS:          0
L1I USEFUL LOAD PREFETCHES:          0 PREFETCH ISSUED TO LOWER LEVEL:          0  ACCURACY: -nan
L1I TIMELY PREFETCHES:          0 LATE PREFETCHES: 0 DROPPED PREFETCHES: 0
L1I PREFETCHES SAME FILL-ORIGIN LEVEL: 0 DIFFERENT FILL-ORIGIN LEVEL: 0
L1I AVERAGE MISS LATENCY: 13.0088 cycles
L1I RQ	ACCESS:   13929366	FORWARD:          0	MERGED:    4014010	TO_CACHE:    9915356

BTB TOTAL     ACCESS:    7956749  HIT:    7380713  MISS:     576036  HIT %:    92.7604  MISS %:    7.23959   MPKI: 11.5207
BTB BRANCH_DIRECT_JUMP	ACCESS:     264171  HIT:     264098  MISS:         73
BTB BRANCH_INDIRECT	ACCESS:        357  HIT:        332  MISS:         25
BTB BRANCH_CONDITIONAL	ACCESS:    4727906  HIT:    4727273  MISS:        633
BTB BRANCH_DIRECT_CALL	ACCESS:    1482157  HIT:    1481883  MISS:        274
BTB BRANCH_INDIRECT_CALL	ACCESS:          0  HIT:          0  MISS:          0
BTB BRANCH_RETURN	ACCESS:    1482158  HIT:     907127  MISS:     575031
BTB BRANCH_OTHER ACCESS:          0  HIT:          0  MISS:          0

L2C TOTAL     ACCESS:     194385  HIT:     192446  MISS:       1939  HIT %:    99.0025  MISS %:   0.997505   MPKI: 0.03878
L2C LOAD      ACCESS:      69249  HIT:      68642  MISS:        607  HIT %:    99.1235  MISS %:   0.876547   MPKI: 0.01214
L2C DATA LOAD MPKI: 0.01212
L2C INSTRUCTION LOAD MPKI: 2e-05
L2C RFO       ACCESS:      15798  HIT:      15797  MISS:          1  HIT %:    99.9937  MISS %: 0.00632992   MPKI: 2e-05
L2C PREFETCH  ACCESS:      79952  HIT:      78650  MISS:       1302  HIT %:    98.3715  MISS %:    1.62848   MPKI: 0.02604
AGUS PREFETCH L1 MISS: 0
L2C DATA PREFETCH MPKI: 0.02604
L2C INSTRUCTION PREFETCH MPKI: 0
L2C WRITEBACK ACCESS:      29326  HIT:      29324  MISS:          2  HIT %:    99.9932  MISS %: 0.00681989   MPKI: 4e-05
L2C LOAD TRANSLATION ACCESS:         60  HIT:         33  MISS:         27  HIT %:         55  MISS %:         45   MPKI: 0.00054
L2C PREFETCH  REQUESTED:          0  ISSUED:          0  USEFUL:        264  USELESS:        539
L2C USEFUL LOAD PREFETCHES:        264 PREFETCH ISSUED TO LOWER LEVEL:       1302  ACCURACY: 20.2765
L2C TIMELY PREFETCHES:        264 LATE PREFETCHES: 0 DROPPED PREFETCHES: 0
L2C PREFETCHES SAME FILL-ORIGIN LEVEL: 0 DIFFERENT FILL-ORIGIN LEVEL: 0
L2C AVERAGE MISS LATENCY: 131.773 cycles
L2C RQ	ACCESS:      85110	FORWARD:          0	MERGED:          0	TO_CACHE:      85107
L2C WQ	ACCESS:      29326	FORWARD:          3	MERGED:          0	TO_CACHE:      29326
L2C PQ	ACCESS:      79952	FORWARD:          0	MERGED:          0	TO_CACHE:      79952

L2C Instructions Evicting Data 1
L2C Translations Evicting Data 7
L2C Data Evicting Data 1028
L2C Instructions Evicting Instructions 0
L2C Translations Evicting Instructions 0
L2C Data Evicting Instructions 55
L2C Instructions Evicting Translations 0
L2C Translations Evicting Translations 0
L2C Data Evicting Translations 32
L2C Dense regions hint from L2: 0
PSCL5 TOTAL     ACCESS:         60  HIT:         60  MISS:          0  HIT %:        100  MISS %:          0   MPKI: 0
PSCL5 LOAD TRANSLATION ACCESS:         60  HIT:         60  MISS:          0  HIT %:        100  MISS %:          0   MPKI: 0
PSCL5 PREFETCH  REQUESTED:          0  ISSUED:          0  USEFUL:          0  USELESS:          0
PSCL5 USEFUL LOAD PREFETCHES:          0 PREFETCH ISSUED TO LOWER LEVEL:          0  ACCURACY: -nan
PSCL5 TIMELY PREFETCHES:          0 LATE PREFETCHES: 0 DROPPED PREFETCHES: 0
PSCL5 PREFETCHES SAME FILL-ORIGIN LEVEL: 0 DIFFERENT FILL-ORIGIN LEVEL: 0

PSCL4 TOTAL     ACCESS:         60  HIT:         60  MISS:          0  HIT %:        100  MISS %:          0   MPKI: 0
PSCL4 LOAD TRANSLATION ACCESS:         60  HIT:         60  MISS:          0  HIT %:        100  MISS %:          0   MPKI: 0
PSCL4 PREFETCH  REQUESTED:          0  ISSUED:          0  USEFUL:          0  USELESS:          0
PSCL4 USEFUL LOAD PREFETCHES:          0 PREFETCH ISSUED TO LOWER LEVEL:          0  ACCURACY: -nan
PSCL4 TIMELY PREFETCHES:          0 LATE PREFETCHES: 0 DROPPED PREFETCHES: 0
PSCL4 PREFETCHES SAME FILL-ORIGIN LEVEL: 0 DIFFERENT FILL-ORIGIN LEVEL: 0

PSCL3 TOTAL     ACCESS:         60  HIT:         60  MISS:          0  HIT %:        100  MISS %:          0   MPKI: 0
PSCL3 LOAD TRANSLATION ACCESS:         60  HIT:         60  MISS:          0  HIT %:        100  MISS %:          0   MPKI: 0
PSCL3 PREFETCH  REQUESTED:          0  ISSUED:          0  USEFUL:          0  USELESS:          0
PSCL3 USEFUL LOAD PREFETCHES:          0 PREFETCH ISSUED TO LOWER LEVEL:          0  ACCURACY: -nan
PSCL3 TIMELY PREFETCHES:          0 LATE PREFETCHES: 0 DROPPED PREFETCHES: 0
PSCL3 PREFETCHES SAME FILL-ORIGIN LEVEL: 0 DIFFERENT FILL-ORIGIN LEVEL: 0

PSCL2 TOTAL     ACCESS:         60  HIT:         60  MISS:          0  HIT %:        100  MISS %:          0   MPKI: 0
PSCL2 LOAD TRANSLATION ACCESS:         60  HIT:         60  MISS:          0  HIT %:        100  MISS %:          0   MPKI: 0
PSCL2 PREFETCH  REQUESTED:          0  ISSUED:          0  USEFUL:          0  USELESS:          0
PSCL2 USEFUL LOAD PREFETCHES:          0 PREFETCH ISSUED TO LOWER LEVEL:          0  ACCURACY: -nan
PSCL2 TIMELY PREFETCHES:          0 LATE PREFETCHES: 0 DROPPED PREFETCHES: 0
PSCL2 PREFETCHES SAME FILL-ORIGIN LEVEL: 0 DIFFERENT FILL-ORIGIN LEVEL: 0

LLC TOTAL     ACCESS:       2039  HIT:        635  MISS:       1404  HIT %:    31.1427  MISS %:    68.8573   MPKI: 0.02808
LLC LOAD      ACCESS:        607  HIT:        303  MISS:        304  HIT %:    49.9176  MISS %:    50.0824   MPKI: 0.00608
LLC RFO       ACCESS:          1  HIT:          0  MISS:          1  HIT %:          0  MISS %:        100   MPKI: 2e-05
LLC PREFETCH  ACCESS:       1302  HIT:        226  MISS:       1076  HIT %:    17.3579  MISS %:    82.6421   MPKI: 0.02152
AGUS PREFETCH L1 MISS: 0
LLC WRITEBACK ACCESS:        102  HIT:        102  MISS:          0  HIT %:        100  MISS %:          0   MPKI: 0
LLC LOAD TRANSLATION ACCESS:         27  HIT:          4  MISS:         23  HIT %:    14.8148  MISS %:    85.1852   MPKI: 0.00046
LLC PREFETCH  REQUESTED:          0  ISSUED:          0  USEFUL:         29  USELESS:          0
LLC USEFUL LOAD PREFETCHES:         29 PREFETCH ISSUED TO LOWER LEVEL:       1076  ACCURACY: 2.69517
LLC TIMELY PREFETCHES:         29 LATE PREFETCHES: 0 DROPPED PREFETCHES: 0
LLC PREFETCHES SAME FILL-ORIGIN LEVEL: 0 DIFFERENT FILL-ORIGIN LEVEL: 0
LLC AVERAGE MISS LATENCY: 140.113 cycles
LLC RQ	ACCESS:        635	FORWARD:          0	MERGED:          0	TO_CACHE:        635
LLC WQ	ACCESS:        102	FORWARD:          0	MERGED:          0	TO_CACHE:        102
LLC PQ	ACCESS:       1302	FORWARD:          0	MERGED:          0	TO_CACHE:       1302

LLC Dense regions hint to LLC: 0

RAW hits: 372920
Loads Generated: 13568012
Loads sent to L1D: 13195092
Stores Generated: 5819012
Stores sent to L1D: 5819015
Major fault: 0 Minor fault: 510
Allocated PAGES: 510

stream: 
stream:times selected: 3051491
stream:pref_filled: 86848
stream:pref_useful: 46780
stream:pref_late: 2831
stream:misses: 9857
stream:misses_by_poll: 0

CS: 
CS:times selected: 192060
CS:pref_filled: 61007
CS:pref_useful: 50427
CS:pref_late: 573
CS:misses: 3909
CS:misses_by_poll: 49

CPLX: 
CPLX:times selected: 2857945
CPLX:pref_filled: 17222
CPLX:pref_useful: 6930
CPLX:pref_late: 130
CPLX:misses: 51563
CPLX:misses_by_poll: 8

NL_L1: 
NL:times selected: 15553
NL:pref_filled: 476
NL:pref_useful: 98
NL:pref_late: 0
NL:misses: 310
NL:misses_by_poll: 0

total selections: 6117049
total_filled: 76553
total_useful: 45775
total_late: 3720
total_polluted: 57
total_misses_after_warmup: 70752
conflicts: 4421169

test: 549263

DRAM Statistics
 CHANNEL 0
 RQ ROW_BUFFER_HIT:        427  ROW_BUFFER_MISS:        977
 DBUS_CONGESTED:          0
 WQ ROW_BUFFER_HIT:          0  ROW_BUFFER_MISS:          0  FULL:          0

 AVG_CONGESTED_CYCLE: -
 All warmup complete: 2
Channel 0 Bank busy for read cycles: 0
Channel 0 Bank busy for write cycles: 0
Channel 0
Rank 0
0banks busy for read cycles: 144071927
0banks busy for write cycles: 0
1banks busy for read cycles: 131267
1banks busy for write cycles: 0
2banks busy for read cycles: 12067
2banks busy for write cycles: 0
3banks busy for read cycles: 2456
3banks busy for write cycles: 0
4banks busy for read cycles: 1009
4banks busy for write cycles: 0
5banks busy for read cycles: 201
5banks busy for write cycles: 0
6banks busy for read cycles: 15
6banks busy for write cycles: 0
7banks busy for read cycles: 0
7banks busy for write cycles: 0
8banks busy for read cycles: 0
8banks busy for write cycles: 0

CPU 0 Branch Prediction Accuracy: 87.1506% MPKI: 21.5948 Average ROB Occupancy at Mispredict: 15.7931
Branch types
NOT_BRANCH: 41596715 83.1934%
BRANCH_DIRECT_JUMP: 264171 0.528342%
BRANCH_INDIRECT: 357 0.000714%
BRANCH_CONDITIONAL: 5174172 10.3483%
BRANCH_DIRECT_CALL: 1482157 2.96431%
BRANCH_INDIRECT_CALL: 0 0%
BRANCH_RETURN: 1482158 2.96432%
BRANCH_OTHER: 0 0%

DRAM PAGES: 1048576
Allocated PAGES: 510
