
*** ChampSim Multicore Out-of-Order Simulator ***

Warmup Instructions: 50000000
Simulation Instructions: 50000000
Number of CPUs: 1
LLC sets: 2048
LLC ways: 16
Off-chip DRAM Size: 4096 MB Channels: 1 Width: 64-bit Data Rate: 6400 MT/s
CPU 0 runs ./traces/SPEC-CPU2017/641.leela_s-1052B.champsimtrace.xz
.xz
CPU 0 Bimodal branch predictor
BTB has LRU replacement policy
ITLB has LRU replacement policy
DTLB has LRU replacement policy
STLB has LRU replacement policy
L1I has LRU replacement policy
L1D has LRU replacement policy
L2C has LRU replacement policy
LLC has LRU replacement policy
Heartbeat CPU 0 instructions: 10000003 cycles: 3212820 heartbeat IPC: 3.11253 cumulative IPC: 3.11253 (Simulation time: 0 hr 10 min 6 sec) 
Heartbeat CPU 0 instructions: 20000000 cycles: 6425938 heartbeat IPC: 3.11224 cumulative IPC: 3.11239 (Simulation time: 0 hr 21 min 35 sec) 
Heartbeat CPU 0 instructions: 30000003 cycles: 9637627 heartbeat IPC: 3.11363 cumulative IPC: 3.1128 (Simulation time: 0 hr 32 min 32 sec) 
Heartbeat CPU 0 instructions: 40000000 cycles: 12849135 heartbeat IPC: 3.1138 cumulative IPC: 3.11305 (Simulation time: 0 hr 45 min 34 sec) 
Heartbeat CPU 0 instructions: 50000003 cycles: 16064857 heartbeat IPC: 3.10972 cumulative IPC: 3.11238 (Simulation time: 0 hr 55 min 36 sec) 

Warmup complete CPU 0 instructions: 50000003 cycles: 16064857 (Simulation time: 0 hr 55 min 36 sec) 

Heartbeat CPU 0 instructions: 60000000 cycles: 44797140 heartbeat IPC: 0.34804 cumulative IPC: 0.34804 (Simulation time: 1 hr 2 min 9 sec) 
Heartbeat CPU 0 instructions: 70000003 cycles: 73351854 heartbeat IPC: 0.350205 cumulative IPC: 0.349119 (Simulation time: 1 hr 8 min 31 sec) 
Heartbeat CPU 0 instructions: 80000000 cycles: 102116178 heartbeat IPC: 0.347653 cumulative IPC: 0.348629 (Simulation time: 1 hr 14 min 27 sec) 
Heartbeat CPU 0 instructions: 90000000 cycles: 131184010 heartbeat IPC: 0.344023 cumulative IPC: 0.347466 (Simulation time: 1 hr 20 min 25 sec) 
Heartbeat CPU 0 instructions: 100000000 cycles: 160124138 heartbeat IPC: 0.345541 cumulative IPC: 0.347079 (Simulation time: 1 hr 26 min 33 sec) 
Finished CPU 0 instructions: 50000000 cycles: 144059291 cumulative IPC: 0.347079 (Simulation time: 1 hr 26 min 33 sec) 

ChampSim completed all CPUs

Region of Interest Statistics

CPU 0 cumulative IPC: 0.347079 instructions: 50000000 cycles: 144059291
ITLB TOTAL     ACCESS:    8668871  HIT:    8668871  MISS:          0  HIT %:        100  MISS %:          0   MPKI: 0
ITLB LOAD TRANSLATION ACCESS:    8668871  HIT:    8668871  MISS:          0  HIT %:        100  MISS %:          0   MPKI: 0
ITLB PREFETCH  REQUESTED:          0  ISSUED:          0  USEFUL:          0  USELESS:          0
ITLB USEFUL LOAD PREFETCHES:          0 PREFETCH ISSUED TO LOWER LEVEL:          0  ACCURACY: -nan
ITLB TIMELY PREFETCHES:          0 LATE PREFETCHES: 0 DROPPED PREFETCHES: 0
ITLB PREFETCHES SAME FILL-ORIGIN LEVEL: 0 DIFFERENT FILL-ORIGIN LEVEL: 0
ITLB AVERAGE MISS LATENCY: -nan cycles
ITLB RQ	ACCESS:    9913479	FORWARD:          0	MERGED:    1244608	TO_CACHE:    8668871

DTLB TOTAL     ACCESS:   13870318  HIT:   13847615  MISS:      22703  HIT %:    99.8363  MISS %:    0.16368   MPKI: 0.45406
DTLB LOAD TRANSLATION ACCESS:   13870318  HIT:   13847615  MISS:      22703  HIT %:    99.8363  MISS %:    0.16368   MPKI: 0.45406
DTLB PREFETCH  REQUESTED:          0  ISSUED:          0  USEFUL:          0  USELESS:          0
DTLB USEFUL LOAD PREFETCHES:          0 PREFETCH ISSUED TO LOWER LEVEL:          0  ACCURACY: -nan
DTLB TIMELY PREFETCHES:          0 LATE PREFETCHES: 0 DROPPED PREFETCHES: 0
DTLB PREFETCHES SAME FILL-ORIGIN LEVEL: 0 DIFFERENT FILL-ORIGIN LEVEL: 0
DTLB AVERAGE MISS LATENCY: 9.43417 cycles
DTLB RQ	ACCESS:   15976627	FORWARD:          0	MERGED:    2105852	TO_CACHE:   13870775

STLB TOTAL     ACCESS:    1202528  HIT:    1202468  MISS:         60  HIT %:     99.995  MISS %: 0.00498949   MPKI: 0.0012
STLB LOAD TRANSLATION ACCESS:      22703  HIT:      22643  MISS:         60  HIT %:    99.7357  MISS %:   0.264282   MPKI: 0.0012
STLB TRANSLATION FROM L1D PREFETCHER ACCESS:    1179825  HIT:    1179825  MISS:          0  HIT %:        100  MISS %:          0   MPKI: 0
STLB PREFETCH  REQUESTED:          0  ISSUED:          0  USEFUL:          0  USELESS:          0
STLB USEFUL LOAD PREFETCHES:          0 PREFETCH ISSUED TO LOWER LEVEL:          0  ACCURACY: -nan
STLB TIMELY PREFETCHES:          0 LATE PREFETCHES: 0 DROPPED PREFETCHES: 0
STLB PREFETCHES SAME FILL-ORIGIN LEVEL: 0 DIFFERENT FILL-ORIGIN LEVEL: 0
STLB AVERAGE MISS LATENCY: 186.833 cycles
STLB RQ	ACCESS:    1739406	FORWARD:          0	MERGED:     536879	TO_CACHE:    1202527

STLB Hit, L1D data hit: 0
STLB Hit, L2C data hit: 0
STLB Hit, LLC data hit: 0
STLB Hit, LLC data miss: 0
STLB STLB hints to L2: 0
L1D TOTAL     ACCESS:   17667492  HIT:   17486089  MISS:     181403  HIT %:    98.9732  MISS %:    1.02676   MPKI: 3.62806
L1D LOAD      ACCESS:   10272340  HIT:   10222388  MISS:      49952  HIT %:    99.5137  MISS %:   0.486277   MPKI: 0.99904
L1D RFO       ACCESS:    5682646  HIT:    5667932  MISS:      14714  HIT %:    99.7411  MISS %:   0.258929   MPKI: 0.29428
L1D PREFETCH  ACCESS:    1712506  HIT:    1595769  MISS:     116737  HIT %:    93.1833  MISS %:    6.81674   MPKI: 2.33474
AGUS PREFETCH L1 MISS: 0
L1D PREFETCH  REQUESTED:    3451575  ISSUED:    3433432  USEFUL:      68727  USELESS:      47948
L1D USEFUL LOAD PREFETCHES:      68727 PREFETCH ISSUED TO LOWER LEVEL:     119075  ACCURACY: 57.7174
L1D TIMELY PREFETCHES:      68727 LATE PREFETCHES: 2317 DROPPED PREFETCHES: 0
L1D PREFETCHES SAME FILL-ORIGIN LEVEL: 119075 DIFFERENT FILL-ORIGIN LEVEL: 0
L1D AVERAGE MISS LATENCY: 16.3599 cycles
L1D RQ	ACCESS:   13200751	FORWARD:          0	MERGED:    2331244	TO_CACHE:   10273295
L1D WQ	ACCESS:    5819015	FORWARD:     596238	MERGED:     115683	TO_CACHE:    5703332
L1D PQ	ACCESS:    1716729	FORWARD:          0	MERGED:          0	TO_CACHE:    1716703

L1D UNIQUE REGIONS ACCESSED: 0
L1D REGIONS CONFLICTS: 0
L1D Cross Page Prefetch Requests: 531896
L1D Same Page Prefetch Requests: 2979370
L1D ROI Sum of L1D PQ occupancy: 22198313
L1D PREFETCHES PUSHED FROM L2C: 0
L1I TOTAL     ACCESS:    9912464  HIT:    9909058  MISS:       3406  HIT %:    99.9656  MISS %:  0.0343608   MPKI: 0.06812
L1I LOAD      ACCESS:    9912464  HIT:    9909058  MISS:       3406  HIT %:    99.9656  MISS %:  0.0343608   MPKI: 0.06812
L1I PREFETCH  REQUESTED:          0  ISSUED:          0  USEFUL:          0  USELESS:          0
L1I USEFUL LOAD PREFETCHES:          0 PREFETCH ISSUED TO LOWER LEVEL:          0  ACCURACY: -nan
L1I TIMELY PREFETCHES:          0 LATE PREFETCHES: 0 DROPPED PREFETCHES: 0
L1I PREFETCHES SAME FILL-ORIGIN LEVEL: 0 DIFFERENT FILL-ORIGIN LEVEL: 0
L1I AVERAGE MISS LATENCY: 13 cycles
L1I RQ	ACCESS:   13925084	FORWARD:          0	MERGED:    4011605	TO_CACHE:    9913479

BTB TOTAL     ACCESS:    7956749  HIT:    7380713  MISS:     576036  HIT %:    92.7604  MISS %:    7.23959   MPKI: 11.5207
BTB BRANCH_DIRECT_JUMP	ACCESS:     264171  HIT:     264098  MISS:         73
BTB BRANCH_INDIRECT	ACCESS:        357  HIT:        332  MISS:         25
BTB BRANCH_CONDITIONAL	ACCESS:    4727906  HIT:    4727273  MISS:        633
BTB BRANCH_DIRECT_CALL	ACCESS:    1482157  HIT:    1481883  MISS:        274
BTB BRANCH_INDIRECT_CALL	ACCESS:          0  HIT:          0  MISS:          0
BTB BRANCH_RETURN	ACCESS:    1482158  HIT:     907127  MISS:     575031
BTB BRANCH_OTHER ACCESS:          0  HIT:          0  MISS:          0

L2C TOTAL     ACCESS:     213879  HIT:     212132  MISS:       1747  HIT %:    99.1832  MISS %:   0.816817   MPKI: 0.03494
L2C LOAD      ACCESS:      51037  HIT:      50458  MISS:        579  HIT %:    98.8655  MISS %:    1.13447   MPKI: 0.01158
L2C DATA LOAD MPKI: 0.01158
L2C INSTRUCTION LOAD MPKI: 0
L2C RFO       ACCESS:      14693  HIT:      14691  MISS:          2  HIT %:    99.9864  MISS %:  0.0136119   MPKI: 4e-05
L2C PREFETCH  ACCESS:     119065  HIT:     117929  MISS:       1136  HIT %:    99.0459  MISS %:   0.954101   MPKI: 0.02272
AGUS PREFETCH L1 MISS: 0
L2C DATA PREFETCH MPKI: 0.02272
L2C INSTRUCTION PREFETCH MPKI: 0
L2C WRITEBACK ACCESS:      29024  HIT:      29022  MISS:          2  HIT %:    99.9931  MISS %: 0.00689085   MPKI: 4e-05
L2C LOAD TRANSLATION ACCESS:         60  HIT:         32  MISS:         28  HIT %:    53.3333  MISS %:    46.6667   MPKI: 0.00056
L2C PREFETCH  REQUESTED:          0  ISSUED:          0  USEFUL:        168  USELESS:        524
L2C USEFUL LOAD PREFETCHES:        168 PREFETCH ISSUED TO LOWER LEVEL:       1136  ACCURACY: 14.7887
L2C TIMELY PREFETCHES:        168 LATE PREFETCHES: 0 DROPPED PREFETCHES: 0
L2C PREFETCHES SAME FILL-ORIGIN LEVEL: 0 DIFFERENT FILL-ORIGIN LEVEL: 0
L2C AVERAGE MISS LATENCY: 129.979 cycles
L2C RQ	ACCESS:      65794	FORWARD:          0	MERGED:          0	TO_CACHE:      65790
L2C WQ	ACCESS:      29024	FORWARD:         14	MERGED:          0	TO_CACHE:      29024
L2C PQ	ACCESS:     119075	FORWARD:          0	MERGED:          0	TO_CACHE:     119065

L2C Instructions Evicting Data 0
L2C Translations Evicting Data 9
L2C Data Evicting Data 945
L2C Instructions Evicting Instructions 0
L2C Translations Evicting Instructions 2
L2C Data Evicting Instructions 49
L2C Instructions Evicting Translations 0
L2C Translations Evicting Translations 0
L2C Data Evicting Translations 29
L2C Dense regions hint from L2: 0
PSCL5 TOTAL     ACCESS:         60  HIT:         60  MISS:          0  HIT %:        100  MISS %:          0   MPKI: 0
PSCL5 LOAD TRANSLATION ACCESS:         60  HIT:         60  MISS:          0  HIT %:        100  MISS %:          0   MPKI: 0
PSCL5 PREFETCH  REQUESTED:          0  ISSUED:          0  USEFUL:          0  USELESS:          0
PSCL5 USEFUL LOAD PREFETCHES:          0 PREFETCH ISSUED TO LOWER LEVEL:          0  ACCURACY: -nan
PSCL5 TIMELY PREFETCHES:          0 LATE PREFETCHES: 0 DROPPED PREFETCHES: 0
PSCL5 PREFETCHES SAME FILL-ORIGIN LEVEL: 0 DIFFERENT FILL-ORIGIN LEVEL: 0

PSCL4 TOTAL     ACCESS:         60  HIT:         60  MISS:          0  HIT %:        100  MISS %:          0   MPKI: 0
PSCL4 LOAD TRANSLATION ACCESS:         60  HIT:         60  MISS:          0  HIT %:        100  MISS %:          0   MPKI: 0
PSCL4 PREFETCH  REQUESTED:          0  ISSUED:          0  USEFUL:          0  USELESS:          0
PSCL4 USEFUL LOAD PREFETCHES:          0 PREFETCH ISSUED TO LOWER LEVEL:          0  ACCURACY: -nan
PSCL4 TIMELY PREFETCHES:          0 LATE PREFETCHES: 0 DROPPED PREFETCHES: 0
PSCL4 PREFETCHES SAME FILL-ORIGIN LEVEL: 0 DIFFERENT FILL-ORIGIN LEVEL: 0

PSCL3 TOTAL     ACCESS:         60  HIT:         60  MISS:          0  HIT %:        100  MISS %:          0   MPKI: 0
PSCL3 LOAD TRANSLATION ACCESS:         60  HIT:         60  MISS:          0  HIT %:        100  MISS %:          0   MPKI: 0
PSCL3 PREFETCH  REQUESTED:          0  ISSUED:          0  USEFUL:          0  USELESS:          0
PSCL3 USEFUL LOAD PREFETCHES:          0 PREFETCH ISSUED TO LOWER LEVEL:          0  ACCURACY: -nan
PSCL3 TIMELY PREFETCHES:          0 LATE PREFETCHES: 0 DROPPED PREFETCHES: 0
PSCL3 PREFETCHES SAME FILL-ORIGIN LEVEL: 0 DIFFERENT FILL-ORIGIN LEVEL: 0

PSCL2 TOTAL     ACCESS:         60  HIT:         60  MISS:          0  HIT %:        100  MISS %:          0   MPKI: 0
PSCL2 LOAD TRANSLATION ACCESS:         60  HIT:         60  MISS:          0  HIT %:        100  MISS %:          0   MPKI: 0
PSCL2 PREFETCH  REQUESTED:          0  ISSUED:          0  USEFUL:          0  USELESS:          0
PSCL2 USEFUL LOAD PREFETCHES:          0 PREFETCH ISSUED TO LOWER LEVEL:          0  ACCURACY: -nan
PSCL2 TIMELY PREFETCHES:          0 LATE PREFETCHES: 0 DROPPED PREFETCHES: 0
PSCL2 PREFETCHES SAME FILL-ORIGIN LEVEL: 0 DIFFERENT FILL-ORIGIN LEVEL: 0

LLC TOTAL     ACCESS:       1824  HIT:        582  MISS:       1242  HIT %:    31.9079  MISS %:    68.0921   MPKI: 0.02484
LLC LOAD      ACCESS:        579  HIT:        265  MISS:        314  HIT %:    45.7686  MISS %:    54.2314   MPKI: 0.00628
LLC RFO       ACCESS:          2  HIT:          1  MISS:          1  HIT %:         50  MISS %:         50   MPKI: 2e-05
LLC PREFETCH  ACCESS:       1136  HIT:        232  MISS:        904  HIT %:    20.4225  MISS %:    79.5775   MPKI: 0.01808
AGUS PREFETCH L1 MISS: 0
LLC WRITEBACK ACCESS:         79  HIT:         79  MISS:          0  HIT %:        100  MISS %:          0   MPKI: 0
LLC LOAD TRANSLATION ACCESS:         28  HIT:          5  MISS:         23  HIT %:    17.8571  MISS %:    82.1429   MPKI: 0.00046
LLC PREFETCH  REQUESTED:          0  ISSUED:          0  USEFUL:         23  USELESS:          0
LLC USEFUL LOAD PREFETCHES:         23 PREFETCH ISSUED TO LOWER LEVEL:        904  ACCURACY: 2.54425
LLC TIMELY PREFETCHES:         23 LATE PREFETCHES: 0 DROPPED PREFETCHES: 0
LLC PREFETCHES SAME FILL-ORIGIN LEVEL: 0 DIFFERENT FILL-ORIGIN LEVEL: 0
LLC AVERAGE MISS LATENCY: 140.169 cycles
LLC RQ	ACCESS:        609	FORWARD:          0	MERGED:          0	TO_CACHE:        609
LLC WQ	ACCESS:         79	FORWARD:          0	MERGED:          0	TO_CACHE:         79
LLC PQ	ACCESS:       1136	FORWARD:          0	MERGED:          0	TO_CACHE:       1136

LLC Dense regions hint to LLC: 0

RAW hits: 367261
Loads Generated: 13568012
Loads sent to L1D: 13200751
Stores Generated: 5819012
Stores sent to L1D: 5819015
Major fault: 0 Minor fault: 510
Allocated PAGES: 510

stream: 
stream:times selected: 3054048
stream:pref_reqs: 3033760
stream:pref_reqs_filtered_out: 1875177
stream:pref_filled: 69596
stream:pref_useful: 31116
stream:pref_late: 1053
stream:misses: 375
stream:misses_by_poll: 0

CS: 
CS:times selected: 218502
CS:pref_reqs: 640092
CS:pref_reqs_filtered_out: 525557
CS:pref_filled: 23399
CS:pref_useful: 13146
CS:pref_late: 354
CS:misses: 403
CS:misses_by_poll: 10

CPLX: 
CPLX:times selected: 2834227
CPLX:pref_reqs: 934824
CPLX:pref_reqs_filtered_out: 690362
CPLX:pref_filled: 17732
CPLX:pref_useful: 6426
CPLX:pref_late: 74
CPLX:misses: 2789
CPLX:misses_by_poll: 10

ISB: 
ISB:total access:15630149
ISB:times selected:14536483
ISB:canary counter:0
ISB:pref_reqs: 9923079
ISB:pref_reqs_filtered_out: 7883180
ISB:pref_filled: 134567
ISB:pref_useful: 96901
ISB:pref_late: 838
ISB:misses: 43810
ISB:misses_by_poll: 263
ISB:Stream end: 14451435
ISB:No Prediction: 1093666 6.99716
ISB:No translation: 4253776794
ISB:Predictions: 2016537 12.9016

NL_L1: 
NL:times selected: 12691
NL:pref_reqs: 12691
NL:pref_reqs_filtered_out: 8312
NL:pref_filled: 331
NL:pref_useful: 31
NL:pref_late: 0
NL:misses: 56
NL:misses_by_poll: 0

Coverage: 57.91
total selections: 20655951
total_filled: 116737
total_useful: 68727
total_late: 2627
total_polluted: 283
total_misses_after_warmup: 50906
conflicts: 4421110

test: 0
ISB Prefetcher final stats
Prefetcher final stats
Training Unit Size: 1027
Addr table size: 4674 44021
Triggers: 15630149
Structural address exists: 14536483 93.0028
No Prediction: 1093666 6.99716
Prefetches issued: 2016537 12.9016
Stream end: 14451435
No translation: 4253776794
%Stream divergence: 1031500 6.59943
Stream divergence -- new stream: 0
A: 0
B: 0
C: 3054055
D: 3054055
E: 3054055
F: 0
G: 0

DRAM Statistics
 CHANNEL 0
 RQ ROW_BUFFER_HIT:        372  ROW_BUFFER_MISS:        870
 DBUS_CONGESTED:          0
 WQ ROW_BUFFER_HIT:          0  ROW_BUFFER_MISS:          0  FULL:          0

 AVG_CONGESTED_CYCLE: -
 All warmup complete: 2
Channel 0 Bank busy for read cycles: 0
Channel 0 Bank busy for write cycles: 0
Channel 0
Rank 0
0banks busy for read cycles: 143927312
0banks busy for write cycles: 0
1banks busy for read cycles: 117933
1banks busy for write cycles: 0
2banks busy for read cycles: 11951
2banks busy for write cycles: 0
3banks busy for read cycles: 1153
3banks busy for write cycles: 0
4banks busy for read cycles: 909
4banks busy for write cycles: 0
5banks busy for read cycles: 34
5banks busy for write cycles: 0
6banks busy for read cycles: 0
6banks busy for write cycles: 0
7banks busy for read cycles: 0
7banks busy for write cycles: 0
8banks busy for read cycles: 0
8banks busy for write cycles: 0

CPU 0 Branch Prediction Accuracy: 87.1506% MPKI: 21.5948 Average ROB Occupancy at Mispredict: 15.78
Branch types
NOT_BRANCH: 41596715 83.1934%
BRANCH_DIRECT_JUMP: 264171 0.528342%
BRANCH_INDIRECT: 357 0.000714%
BRANCH_CONDITIONAL: 5174172 10.3483%
BRANCH_DIRECT_CALL: 1482157 2.96431%
BRANCH_INDIRECT_CALL: 0 0%
BRANCH_RETURN: 1482158 2.96432%
BRANCH_OTHER: 0 0%

DRAM PAGES: 1048576
Allocated PAGES: 510
