
*** ChampSim Multicore Out-of-Order Simulator ***

Warmup Instructions: 50000000
Simulation Instructions: 50000000
Number of CPUs: 1
LLC sets: 2048
LLC ways: 16
Off-chip DRAM Size: 4096 MB Channels: 1 Width: 64-bit Data Rate: 6400 MT/s
CPU 0 runs ./traces/SPEC-CPU2017/641.leela_s-1052B.champsimtrace.xz
.xz
CPU 0 Bimodal branch predictor
BTB has LRU replacement policy
ITLB has LRU replacement policy
DTLB has LRU replacement policy
STLB has LRU replacement policy
L1I has LRU replacement policy
L1D has LRU replacement policy
Ideal ISB Prefetching
L2C has LRU replacement policy
LLC has LRU replacement policy
Heartbeat CPU 0 instructions: 10000003 cycles: 3215750 heartbeat IPC: 3.1097 cumulative IPC: 3.1097 (Simulation time: 0 hr 0 min 59 sec) 
Heartbeat CPU 0 instructions: 20000000 cycles: 6430959 heartbeat IPC: 3.11022 cumulative IPC: 3.10996 (Simulation time: 0 hr 2 min 4 sec) 
Heartbeat CPU 0 instructions: 30000003 cycles: 9644808 heartbeat IPC: 3.11153 cumulative IPC: 3.11048 (Simulation time: 0 hr 3 min 7 sec) 
Heartbeat CPU 0 instructions: 40000000 cycles: 12858411 heartbeat IPC: 3.11177 cumulative IPC: 3.1108 (Simulation time: 0 hr 4 min 10 sec) 
Heartbeat CPU 0 instructions: 50000003 cycles: 16076118 heartbeat IPC: 3.1078 cumulative IPC: 3.1102 (Simulation time: 0 hr 5 min 10 sec) 

Warmup complete CPU 0 instructions: 50000003 cycles: 16076118 (Simulation time: 0 hr 5 min 10 sec) 

Heartbeat CPU 0 instructions: 60000000 cycles: 44904089 heartbeat IPC: 0.346885 cumulative IPC: 0.346885 (Simulation time: 0 hr 6 min 27 sec) 
Heartbeat CPU 0 instructions: 70000003 cycles: 73568391 heartbeat IPC: 0.348866 cumulative IPC: 0.347873 (Simulation time: 0 hr 7 min 40 sec) 
Heartbeat CPU 0 instructions: 80000000 cycles: 102454688 heartbeat IPC: 0.346185 cumulative IPC: 0.347308 (Simulation time: 0 hr 8 min 52 sec) 
Heartbeat CPU 0 instructions: 90000000 cycles: 131618817 heartbeat IPC: 0.342887 cumulative IPC: 0.346192 (Simulation time: 0 hr 10 min 3 sec) 
Heartbeat CPU 0 instructions: 100000000 cycles: 160646544 heartbeat IPC: 0.344498 cumulative IPC: 0.345852 (Simulation time: 0 hr 10 min 59 sec) 
Finished CPU 0 instructions: 50000000 cycles: 144570436 cumulative IPC: 0.345852 (Simulation time: 0 hr 10 min 59 sec) 

ChampSim completed all CPUs

Region of Interest Statistics

CPU 0 cumulative IPC: 0.345852 instructions: 50000000 cycles: 144570436
ITLB TOTAL     ACCESS:    8673631  HIT:    8673631  MISS:          0  HIT %:        100  MISS %:          0   MPKI: 0
ITLB LOAD TRANSLATION ACCESS:    8673631  HIT:    8673631  MISS:          0  HIT %:        100  MISS %:          0   MPKI: 0
ITLB PREFETCH  REQUESTED:          0  ISSUED:          0  USEFUL:          0  USELESS:          0
ITLB USEFUL LOAD PREFETCHES:          0 PREFETCH ISSUED TO LOWER LEVEL:          0  ACCURACY: -nan
ITLB TIMELY PREFETCHES:          0 LATE PREFETCHES: 0 DROPPED PREFETCHES: 0
ITLB PREFETCHES SAME FILL-ORIGIN LEVEL: 0 DIFFERENT FILL-ORIGIN LEVEL: 0
ITLB AVERAGE MISS LATENCY: -nan cycles
ITLB RQ	ACCESS:    9917131	FORWARD:          0	MERGED:    1243500	TO_CACHE:    8673631

DTLB TOTAL     ACCESS:   13864822  HIT:   13842121  MISS:      22701  HIT %:    99.8363  MISS %:   0.163731   MPKI: 0.45402
DTLB LOAD TRANSLATION ACCESS:   13864822  HIT:   13842121  MISS:      22701  HIT %:    99.8363  MISS %:   0.163731   MPKI: 0.45402
DTLB PREFETCH  REQUESTED:          0  ISSUED:          0  USEFUL:          0  USELESS:          0
DTLB USEFUL LOAD PREFETCHES:          0 PREFETCH ISSUED TO LOWER LEVEL:          0  ACCURACY: -nan
DTLB TIMELY PREFETCHES:          0 LATE PREFETCHES: 0 DROPPED PREFETCHES: 0
DTLB PREFETCHES SAME FILL-ORIGIN LEVEL: 0 DIFFERENT FILL-ORIGIN LEVEL: 0
DTLB AVERAGE MISS LATENCY: 9.50134 cycles
DTLB RQ	ACCESS:   15970647	FORWARD:          0	MERGED:    2105353	TO_CACHE:   13865294

STLB TOTAL     ACCESS:      22701  HIT:      22641  MISS:         60  HIT %:    99.7357  MISS %:   0.264306   MPKI: 0.0012
STLB LOAD TRANSLATION ACCESS:      22701  HIT:      22641  MISS:         60  HIT %:    99.7357  MISS %:   0.264306   MPKI: 0.0012
STLB PREFETCH  REQUESTED:          0  ISSUED:          0  USEFUL:          0  USELESS:          0
STLB USEFUL LOAD PREFETCHES:          0 PREFETCH ISSUED TO LOWER LEVEL:          0  ACCURACY: -nan
STLB TIMELY PREFETCHES:          0 LATE PREFETCHES: 0 DROPPED PREFETCHES: 0
STLB PREFETCHES SAME FILL-ORIGIN LEVEL: 0 DIFFERENT FILL-ORIGIN LEVEL: 0
STLB AVERAGE MISS LATENCY: 188.667 cycles
STLB RQ	ACCESS:      22701	FORWARD:          0	MERGED:          0	TO_CACHE:      22701

STLB Hit, L1D data hit: 0
STLB Hit, L2C data hit: 0
STLB Hit, LLC data hit: 0
STLB Hit, LLC data miss: 0
STLB STLB hints to L2: 0
L1D TOTAL     ACCESS:   15946883  HIT:   15830585  MISS:     116298  HIT %:    99.2707  MISS %:   0.729284   MPKI: 2.32596
L1D LOAD      ACCESS:   10264582  HIT:   10162889  MISS:     101693  HIT %:    99.0093  MISS %:   0.990717   MPKI: 2.03386
L1D RFO       ACCESS:    5682301  HIT:    5667696  MISS:      14605  HIT %:     99.743  MISS %:   0.257026   MPKI: 0.2921
L1D PREFETCH  REQUESTED:          0  ISSUED:          0  USEFUL:          0  USELESS:          0
L1D USEFUL LOAD PREFETCHES:          0 PREFETCH ISSUED TO LOWER LEVEL:          0  ACCURACY: -nan
L1D TIMELY PREFETCHES:          0 LATE PREFETCHES: 0 DROPPED PREFETCHES: 0
L1D PREFETCHES SAME FILL-ORIGIN LEVEL: 0 DIFFERENT FILL-ORIGIN LEVEL: 0
L1D AVERAGE MISS LATENCY: 16.0315 cycles
L1D RQ	ACCESS:   13188002	FORWARD:          0	MERGED:    2336583	TO_CACHE:   10267270
L1D WQ	ACCESS:    5819015	FORWARD:     584149	MERGED:     115638	TO_CACHE:    5703377

L1D UNIQUE REGIONS ACCESSED: 0
L1D REGIONS CONFLICTS: 0
L1D Cross Page Prefetch Requests: 0
L1D Same Page Prefetch Requests: 0
L1D ROI Sum of L1D PQ occupancy: 0
L1D PREFETCHES PUSHED FROM L2C: 0
L1I TOTAL     ACCESS:    9916116  HIT:    9912710  MISS:       3406  HIT %:    99.9657  MISS %:  0.0343481   MPKI: 0.06812
L1I LOAD      ACCESS:    9916116  HIT:    9912710  MISS:       3406  HIT %:    99.9657  MISS %:  0.0343481   MPKI: 0.06812
L1I PREFETCH  REQUESTED:          0  ISSUED:          0  USEFUL:          0  USELESS:          0
L1I USEFUL LOAD PREFETCHES:          0 PREFETCH ISSUED TO LOWER LEVEL:          0  ACCURACY: -nan
L1I TIMELY PREFETCHES:          0 LATE PREFETCHES: 0 DROPPED PREFETCHES: 0
L1I PREFETCHES SAME FILL-ORIGIN LEVEL: 0 DIFFERENT FILL-ORIGIN LEVEL: 0
L1I AVERAGE MISS LATENCY: 13 cycles
L1I RQ	ACCESS:   13935646	FORWARD:          0	MERGED:    4018515	TO_CACHE:    9917131

BTB TOTAL     ACCESS:    7956749  HIT:    7380713  MISS:     576036  HIT %:    92.7604  MISS %:    7.23959   MPKI: 11.5207
BTB BRANCH_DIRECT_JUMP	ACCESS:     264171  HIT:     264098  MISS:         73
BTB BRANCH_INDIRECT	ACCESS:        357  HIT:        332  MISS:         25
BTB BRANCH_CONDITIONAL	ACCESS:    4727906  HIT:    4727273  MISS:        633
BTB BRANCH_DIRECT_CALL	ACCESS:    1482157  HIT:    1481883  MISS:        274
BTB BRANCH_INDIRECT_CALL	ACCESS:          0  HIT:          0  MISS:          0
BTB BRANCH_RETURN	ACCESS:    1482158  HIT:     907127  MISS:     575031
BTB BRANCH_OTHER ACCESS:          0  HIT:          0  MISS:          0

L2C TOTAL     ACCESS:     146836  HIT:     145901  MISS:        935  HIT %:    99.3632  MISS %:   0.636765   MPKI: 0.0187
L2C LOAD      ACCESS:     105098  HIT:     104217  MISS:        881  HIT %:    99.1617  MISS %:   0.838265   MPKI: 0.01762
L2C DATA LOAD MPKI: 0.01762
L2C INSTRUCTION LOAD MPKI: 0
L2C RFO       ACCESS:      14605  HIT:      14604  MISS:          1  HIT %:    99.9932  MISS %: 0.00684697   MPKI: 2e-05
L2C PREFETCH  ACCESS:        804  HIT:        777  MISS:         27  HIT %:    96.6418  MISS %:    3.35821   MPKI: 0.00054
AGUS PREFETCH L1 MISS: 0
L2C DATA PREFETCH MPKI: 0.00054
L2C INSTRUCTION PREFETCH MPKI: 0
L2C WRITEBACK ACCESS:      26269  HIT:      26268  MISS:          1  HIT %:    99.9962  MISS %: 0.00380677   MPKI: 2e-05
L2C LOAD TRANSLATION ACCESS:         60  HIT:         35  MISS:         25  HIT %:    58.3333  MISS %:    41.6667   MPKI: 0.0005
L2C PREFETCH  REQUESTED:        804  ISSUED:        804  USEFUL:          9  USELESS:         17
L2C USEFUL LOAD PREFETCHES:          9 PREFETCH ISSUED TO LOWER LEVEL:         27  ACCURACY: 33.3333
L2C TIMELY PREFETCHES:          9 LATE PREFETCHES: 0 DROPPED PREFETCHES: 0
L2C PREFETCHES SAME FILL-ORIGIN LEVEL: 27 DIFFERENT FILL-ORIGIN LEVEL: 0
L2C AVERAGE MISS LATENCY: 132.853 cycles
L2C RQ	ACCESS:     119764	FORWARD:          0	MERGED:          0	TO_CACHE:     119763
L2C WQ	ACCESS:      26269	FORWARD:          1	MERGED:          0	TO_CACHE:      26269
L2C PQ	ACCESS:        804	FORWARD:          0	MERGED:          0	TO_CACHE:        804

L2C Instructions Evicting Data 0
L2C Translations Evicting Data 3
L2C Data Evicting Data 299
L2C Instructions Evicting Instructions 0
L2C Translations Evicting Instructions 0
L2C Data Evicting Instructions 14
L2C Instructions Evicting Translations 0
L2C Translations Evicting Translations 0
L2C Data Evicting Translations 10
L2C Dense regions hint from L2: 0
PSCL5 TOTAL     ACCESS:         60  HIT:         60  MISS:          0  HIT %:        100  MISS %:          0   MPKI: 0
PSCL5 LOAD TRANSLATION ACCESS:         60  HIT:         60  MISS:          0  HIT %:        100  MISS %:          0   MPKI: 0
PSCL5 PREFETCH  REQUESTED:          0  ISSUED:          0  USEFUL:          0  USELESS:          0
PSCL5 USEFUL LOAD PREFETCHES:          0 PREFETCH ISSUED TO LOWER LEVEL:          0  ACCURACY: -nan
PSCL5 TIMELY PREFETCHES:          0 LATE PREFETCHES: 0 DROPPED PREFETCHES: 0
PSCL5 PREFETCHES SAME FILL-ORIGIN LEVEL: 0 DIFFERENT FILL-ORIGIN LEVEL: 0

PSCL4 TOTAL     ACCESS:         60  HIT:         60  MISS:          0  HIT %:        100  MISS %:          0   MPKI: 0
PSCL4 LOAD TRANSLATION ACCESS:         60  HIT:         60  MISS:          0  HIT %:        100  MISS %:          0   MPKI: 0
PSCL4 PREFETCH  REQUESTED:          0  ISSUED:          0  USEFUL:          0  USELESS:          0
PSCL4 USEFUL LOAD PREFETCHES:          0 PREFETCH ISSUED TO LOWER LEVEL:          0  ACCURACY: -nan
PSCL4 TIMELY PREFETCHES:          0 LATE PREFETCHES: 0 DROPPED PREFETCHES: 0
PSCL4 PREFETCHES SAME FILL-ORIGIN LEVEL: 0 DIFFERENT FILL-ORIGIN LEVEL: 0

PSCL3 TOTAL     ACCESS:         60  HIT:         60  MISS:          0  HIT %:        100  MISS %:          0   MPKI: 0
PSCL3 LOAD TRANSLATION ACCESS:         60  HIT:         60  MISS:          0  HIT %:        100  MISS %:          0   MPKI: 0
PSCL3 PREFETCH  REQUESTED:          0  ISSUED:          0  USEFUL:          0  USELESS:          0
PSCL3 USEFUL LOAD PREFETCHES:          0 PREFETCH ISSUED TO LOWER LEVEL:          0  ACCURACY: -nan
PSCL3 TIMELY PREFETCHES:          0 LATE PREFETCHES: 0 DROPPED PREFETCHES: 0
PSCL3 PREFETCHES SAME FILL-ORIGIN LEVEL: 0 DIFFERENT FILL-ORIGIN LEVEL: 0

PSCL2 TOTAL     ACCESS:         60  HIT:         60  MISS:          0  HIT %:        100  MISS %:          0   MPKI: 0
PSCL2 LOAD TRANSLATION ACCESS:         60  HIT:         60  MISS:          0  HIT %:        100  MISS %:          0   MPKI: 0
PSCL2 PREFETCH  REQUESTED:          0  ISSUED:          0  USEFUL:          0  USELESS:          0
PSCL2 USEFUL LOAD PREFETCHES:          0 PREFETCH ISSUED TO LOWER LEVEL:          0  ACCURACY: -nan
PSCL2 TIMELY PREFETCHES:          0 LATE PREFETCHES: 0 DROPPED PREFETCHES: 0
PSCL2 PREFETCHES SAME FILL-ORIGIN LEVEL: 0 DIFFERENT FILL-ORIGIN LEVEL: 0

LLC TOTAL     ACCESS:        969  HIT:        194  MISS:        775  HIT %:    20.0206  MISS %:    79.9794   MPKI: 0.0155
LLC LOAD      ACCESS:        881  HIT:        130  MISS:        751  HIT %:     14.756  MISS %:     85.244   MPKI: 0.01502
LLC RFO       ACCESS:          1  HIT:          0  MISS:          1  HIT %:          0  MISS %:        100   MPKI: 2e-05
LLC PREFETCH  ACCESS:         27  HIT:         27  MISS:          0  HIT %:        100  MISS %:          0   MPKI: 0
AGUS PREFETCH L1 MISS: 0
LLC WRITEBACK ACCESS:         35  HIT:         35  MISS:          0  HIT %:        100  MISS %:          0   MPKI: 0
LLC LOAD TRANSLATION ACCESS:         25  HIT:          2  MISS:         23  HIT %:          8  MISS %:         92   MPKI: 0.00046
LLC PREFETCH  REQUESTED:          0  ISSUED:          0  USEFUL:          0  USELESS:          0
LLC USEFUL LOAD PREFETCHES:          0 PREFETCH ISSUED TO LOWER LEVEL:          0  ACCURACY: -nan
LLC TIMELY PREFETCHES:          0 LATE PREFETCHES: 0 DROPPED PREFETCHES: 0
LLC PREFETCHES SAME FILL-ORIGIN LEVEL: 0 DIFFERENT FILL-ORIGIN LEVEL: 0
LLC AVERAGE MISS LATENCY: 124.126 cycles
LLC RQ	ACCESS:        907	FORWARD:          0	MERGED:          0	TO_CACHE:        907
LLC WQ	ACCESS:         35	FORWARD:          0	MERGED:          0	TO_CACHE:         35
LLC PQ	ACCESS:         27	FORWARD:          0	MERGED:          0	TO_CACHE:         27

LLC Dense regions hint to LLC: 0

RAW hits: 380010
Loads Generated: 13568012
Loads sent to L1D: 13188002
Stores Generated: 5819012
Stores sent to L1D: 5819015
Major fault: 0 Minor fault: 510
Allocated PAGES: 510
Prefetcher final stats
Training Unit Size: 134
Addr table size: 4698 4698


Triggers: 5016
No Prediction: 4779 95.2751
Stream end: 58
No translation: 57978 1155.86
Predictions: 1576 31.4195


Stream divergence: 278 5.54226
Stream divergence -- new stream: 0

DRAM Statistics
 CHANNEL 0
 RQ ROW_BUFFER_HIT:        356  ROW_BUFFER_MISS:        419
 DBUS_CONGESTED:          0
 WQ ROW_BUFFER_HIT:          0  ROW_BUFFER_MISS:          0  FULL:          0

 AVG_CONGESTED_CYCLE: -
 All warmup complete: 2
Channel 0 Bank busy for read cycles: 0
Channel 0 Bank busy for write cycles: 0
Channel 0
Rank 0
0banks busy for read cycles: 144490530
0banks busy for write cycles: 0
1banks busy for read cycles: 79164
1banks busy for write cycles: 0
2banks busy for read cycles: 743
2banks busy for write cycles: 0
3banks busy for read cycles: 0
3banks busy for write cycles: 0
4banks busy for read cycles: 0
4banks busy for write cycles: 0
5banks busy for read cycles: 0
5banks busy for write cycles: 0
6banks busy for read cycles: 0
6banks busy for write cycles: 0
7banks busy for read cycles: 0
7banks busy for write cycles: 0
8banks busy for read cycles: 0
8banks busy for write cycles: 0

CPU 0 Branch Prediction Accuracy: 87.1506% MPKI: 21.5948 Average ROB Occupancy at Mispredict: 15.8432
Branch types
NOT_BRANCH: 41596715 83.1934%
BRANCH_DIRECT_JUMP: 264171 0.528342%
BRANCH_INDIRECT: 357 0.000714%
BRANCH_CONDITIONAL: 5174172 10.3483%
BRANCH_DIRECT_CALL: 1482157 2.96431%
BRANCH_INDIRECT_CALL: 0 0%
BRANCH_RETURN: 1482158 2.96432%
BRANCH_OTHER: 0 0%

DRAM PAGES: 1048576
Allocated PAGES: 510
