
*** ChampSim Multicore Out-of-Order Simulator ***

Warmup Instructions: 50000000
Simulation Instructions: 50000000
Number of CPUs: 1
LLC sets: 2048
LLC ways: 16
Off-chip DRAM Size: 4096 MB Channels: 1 Width: 64-bit Data Rate: 6400 MT/s
CPU 0 runs ./traces/SPEC-CPU2017/641.leela_s-1052B.champsimtrace.xz
.xz
CPU 0 Bimodal branch predictor
BTB has LRU replacement policy
ITLB has LRU replacement policy
DTLB has LRU replacement policy
STLB has LRU replacement policy
L1I has LRU replacement policy
L1D has LRU replacement policy
L2C has LRU replacement policy
LLC has LRU replacement policy
Heartbeat CPU 0 instructions: 10000003 cycles: 3213305 heartbeat IPC: 3.11206 cumulative IPC: 3.11206 (Simulation time: 0 hr 1 min 5 sec) 
Heartbeat CPU 0 instructions: 20000000 cycles: 6426979 heartbeat IPC: 3.1117 cumulative IPC: 3.11188 (Simulation time: 0 hr 2 min 20 sec) 
Heartbeat CPU 0 instructions: 30000003 cycles: 9639312 heartbeat IPC: 3.113 cumulative IPC: 3.11226 (Simulation time: 0 hr 3 min 32 sec) 
Heartbeat CPU 0 instructions: 40000000 cycles: 12851517 heartbeat IPC: 3.11313 cumulative IPC: 3.11247 (Simulation time: 0 hr 4 min 43 sec) 
Heartbeat CPU 0 instructions: 50000003 cycles: 16067960 heartbeat IPC: 3.10903 cumulative IPC: 3.11178 (Simulation time: 0 hr 5 min 53 sec) 

Warmup complete CPU 0 instructions: 50000003 cycles: 16067960 (Simulation time: 0 hr 5 min 53 sec) 

Heartbeat CPU 0 instructions: 60000000 cycles: 44837140 heartbeat IPC: 0.347594 cumulative IPC: 0.347594 (Simulation time: 0 hr 7 min 16 sec) 
Heartbeat CPU 0 instructions: 70000003 cycles: 73435769 heartbeat IPC: 0.349667 cumulative IPC: 0.348628 (Simulation time: 0 hr 8 min 39 sec) 
Heartbeat CPU 0 instructions: 80000000 cycles: 102245060 heartbeat IPC: 0.34711 cumulative IPC: 0.34812 (Simulation time: 0 hr 10 min 7 sec) 
Heartbeat CPU 0 instructions: 90000000 cycles: 131348565 heartbeat IPC: 0.343601 cumulative IPC: 0.346979 (Simulation time: 0 hr 11 min 22 sec) 
Heartbeat CPU 0 instructions: 100000000 cycles: 160322826 heartbeat IPC: 0.345134 cumulative IPC: 0.346609 (Simulation time: 0 hr 12 min 32 sec) 
Finished CPU 0 instructions: 50000000 cycles: 144254876 cumulative IPC: 0.346609 (Simulation time: 0 hr 12 min 32 sec) 

ChampSim completed all CPUs

Region of Interest Statistics

CPU 0 cumulative IPC: 0.346609 instructions: 50000000 cycles: 144254876
ITLB TOTAL     ACCESS:    8671085  HIT:    8671085  MISS:          0  HIT %:        100  MISS %:          0   MPKI: 0
ITLB LOAD TRANSLATION ACCESS:    8671085  HIT:    8671085  MISS:          0  HIT %:        100  MISS %:          0   MPKI: 0
ITLB PREFETCH  REQUESTED:          0  ISSUED:          0  USEFUL:          0  USELESS:          0
ITLB USEFUL LOAD PREFETCHES:          0 PREFETCH ISSUED TO LOWER LEVEL:          0  ACCURACY: -nan
ITLB TIMELY PREFETCHES:          0 LATE PREFETCHES: 0 DROPPED PREFETCHES: 0
ITLB PREFETCHES SAME FILL-ORIGIN LEVEL: 0 DIFFERENT FILL-ORIGIN LEVEL: 0
ITLB AVERAGE MISS LATENCY: -nan cycles
ITLB RQ	ACCESS:    9915639	FORWARD:          0	MERGED:    1244554	TO_CACHE:    8671085

DTLB TOTAL     ACCESS:   13869615  HIT:   13846912  MISS:      22703  HIT %:    99.8363  MISS %:   0.163689   MPKI: 0.45406
DTLB LOAD TRANSLATION ACCESS:   13869615  HIT:   13846912  MISS:      22703  HIT %:    99.8363  MISS %:   0.163689   MPKI: 0.45406
DTLB PREFETCH  REQUESTED:          0  ISSUED:          0  USEFUL:          0  USELESS:          0
DTLB USEFUL LOAD PREFETCHES:          0 PREFETCH ISSUED TO LOWER LEVEL:          0  ACCURACY: -nan
DTLB TIMELY PREFETCHES:          0 LATE PREFETCHES: 0 DROPPED PREFETCHES: 0
DTLB PREFETCHES SAME FILL-ORIGIN LEVEL: 0 DIFFERENT FILL-ORIGIN LEVEL: 0
DTLB AVERAGE MISS LATENCY: 9.50328 cycles
DTLB RQ	ACCESS:   15975336	FORWARD:          0	MERGED:    2105254	TO_CACHE:   13870082

STLB TOTAL     ACCESS:     116267  HIT:     116207  MISS:         60  HIT %:    99.9484  MISS %:  0.0516054   MPKI: 0.0012
STLB LOAD TRANSLATION ACCESS:      22703  HIT:      22643  MISS:         60  HIT %:    99.7357  MISS %:   0.264282   MPKI: 0.0012
STLB TRANSLATION FROM L1D PREFETCHER ACCESS:      93564  HIT:      93564  MISS:          0  HIT %:        100  MISS %:          0   MPKI: 0
STLB PREFETCH  REQUESTED:          0  ISSUED:          0  USEFUL:          0  USELESS:          0
STLB USEFUL LOAD PREFETCHES:          0 PREFETCH ISSUED TO LOWER LEVEL:          0  ACCURACY: -nan
STLB TIMELY PREFETCHES:          0 LATE PREFETCHES: 0 DROPPED PREFETCHES: 0
STLB PREFETCHES SAME FILL-ORIGIN LEVEL: 0 DIFFERENT FILL-ORIGIN LEVEL: 0
STLB AVERAGE MISS LATENCY: 190.167 cycles
STLB RQ	ACCESS:     139000	FORWARD:          0	MERGED:      22733	TO_CACHE:     116267

STLB Hit, L1D data hit: 0
STLB Hit, L2C data hit: 0
STLB Hit, LLC data hit: 0
STLB Hit, LLC data miss: 0
STLB STLB hints to L2: 0
L1D TOTAL     ACCESS:   16065676  HIT:   15896411  MISS:     169265  HIT %:    98.9464  MISS %:    1.05358   MPKI: 3.3853
L1D LOAD      ACCESS:   10269591  HIT:   10197398  MISS:      72193  HIT %:     99.297  MISS %:   0.702978   MPKI: 1.44386
L1D RFO       ACCESS:    5681757  HIT:    5666070  MISS:      15687  HIT %:    99.7239  MISS %:   0.276094   MPKI: 0.31374
L1D PREFETCH  ACCESS:     114328  HIT:      32943  MISS:      81385  HIT %:    28.8145  MISS %:    71.1855   MPKI: 1.6277
AGUS PREFETCH L1 MISS: 0
L1D PREFETCH  REQUESTED:     232795  ISSUED:     232594  USEFUL:      41802  USELESS:      39489
L1D USEFUL LOAD PREFETCHES:      41802 PREFETCH ISSUED TO LOWER LEVEL:      81987  ACCURACY: 50.9861
L1D TIMELY PREFETCHES:      41802 LATE PREFETCHES: 599 DROPPED PREFETCHES: 0
L1D PREFETCHES SAME FILL-ORIGIN LEVEL: 81987 DIFFERENT FILL-ORIGIN LEVEL: 0
L1D AVERAGE MISS LATENCY: 16.3534 cycles
L1D RQ	ACCESS:   13195238	FORWARD:          0	MERGED:    2332501	TO_CACHE:   10271997
L1D WQ	ACCESS:    5819015	FORWARD:     590740	MERGED:     115676	TO_CACHE:    5703339
L1D PQ	ACCESS:     116297	FORWARD:          0	MERGED:          0	TO_CACHE:     116297

L1D UNIQUE REGIONS ACCESSED: 0
L1D REGIONS CONFLICTS: 0
L1D Cross Page Prefetch Requests: 95177
L1D Same Page Prefetch Requests: 151783
L1D ROI Sum of L1D PQ occupancy: 1595744
L1D PREFETCHES PUSHED FROM L2C: 0
L1I TOTAL     ACCESS:    9914624  HIT:    9911218  MISS:       3406  HIT %:    99.9656  MISS %:  0.0343533   MPKI: 0.06812
L1I LOAD      ACCESS:    9914624  HIT:    9911218  MISS:       3406  HIT %:    99.9656  MISS %:  0.0343533   MPKI: 0.06812
L1I PREFETCH  REQUESTED:          0  ISSUED:          0  USEFUL:          0  USELESS:          0
L1I USEFUL LOAD PREFETCHES:          0 PREFETCH ISSUED TO LOWER LEVEL:          0  ACCURACY: -nan
L1I TIMELY PREFETCHES:          0 LATE PREFETCHES: 0 DROPPED PREFETCHES: 0
L1I PREFETCHES SAME FILL-ORIGIN LEVEL: 0 DIFFERENT FILL-ORIGIN LEVEL: 0
L1I AVERAGE MISS LATENCY: 13 cycles
L1I RQ	ACCESS:   13928922	FORWARD:          0	MERGED:    4013283	TO_CACHE:    9915639

BTB TOTAL     ACCESS:    7956749  HIT:    7380713  MISS:     576036  HIT %:    92.7604  MISS %:    7.23959   MPKI: 11.5207
BTB BRANCH_DIRECT_JUMP	ACCESS:     264171  HIT:     264098  MISS:         73
BTB BRANCH_INDIRECT	ACCESS:        357  HIT:        332  MISS:         25
BTB BRANCH_CONDITIONAL	ACCESS:    4727906  HIT:    4727273  MISS:        633
BTB BRANCH_DIRECT_CALL	ACCESS:    1482157  HIT:    1481883  MISS:        274
BTB BRANCH_INDIRECT_CALL	ACCESS:          0  HIT:          0  MISS:          0
BTB BRANCH_RETURN	ACCESS:    1482158  HIT:     907127  MISS:     575031
BTB BRANCH_OTHER ACCESS:          0  HIT:          0  MISS:          0

L2C TOTAL     ACCESS:     201124  HIT:     199347  MISS:       1777  HIT %:    99.1165  MISS %:   0.883535   MPKI: 0.03554
L2C LOAD      ACCESS:      74997  HIT:      74344  MISS:        653  HIT %:    99.1293  MISS %:   0.870701   MPKI: 0.01306
L2C DATA LOAD MPKI: 0.01306
L2C INSTRUCTION LOAD MPKI: 0
L2C RFO       ACCESS:      15684  HIT:      15683  MISS:          1  HIT %:    99.9936  MISS %: 0.00637592   MPKI: 2e-05
L2C PREFETCH  ACCESS:      81986  HIT:      80895  MISS:       1091  HIT %:    98.6693  MISS %:    1.33072   MPKI: 0.02182
AGUS PREFETCH L1 MISS: 0
L2C DATA PREFETCH MPKI: 0.02182
L2C INSTRUCTION PREFETCH MPKI: 0
L2C WRITEBACK ACCESS:      28397  HIT:      28393  MISS:          4  HIT %:    99.9859  MISS %:   0.014086   MPKI: 8e-05
L2C LOAD TRANSLATION ACCESS:         60  HIT:         32  MISS:         28  HIT %:    53.3333  MISS %:    46.6667   MPKI: 0.00056
L2C PREFETCH  REQUESTED:          0  ISSUED:          0  USEFUL:        328  USELESS:        434
L2C USEFUL LOAD PREFETCHES:        328 PREFETCH ISSUED TO LOWER LEVEL:       1091  ACCURACY: 30.0642
L2C TIMELY PREFETCHES:        328 LATE PREFETCHES: 0 DROPPED PREFETCHES: 0
L2C PREFETCHES SAME FILL-ORIGIN LEVEL: 0 DIFFERENT FILL-ORIGIN LEVEL: 0
L2C AVERAGE MISS LATENCY: 123.714 cycles
L2C RQ	ACCESS:      90744	FORWARD:          0	MERGED:          0	TO_CACHE:      90741
L2C WQ	ACCESS:      28397	FORWARD:          4	MERGED:          0	TO_CACHE:      28397
L2C PQ	ACCESS:      81987	FORWARD:          0	MERGED:          0	TO_CACHE:      81986

L2C Instructions Evicting Data 0
L2C Translations Evicting Data 10
L2C Data Evicting Data 963
L2C Instructions Evicting Instructions 0
L2C Translations Evicting Instructions 0
L2C Data Evicting Instructions 33
L2C Instructions Evicting Translations 0
L2C Translations Evicting Translations 0
L2C Data Evicting Translations 28
L2C Dense regions hint from L2: 0
PSCL5 TOTAL     ACCESS:         60  HIT:         60  MISS:          0  HIT %:        100  MISS %:          0   MPKI: 0
PSCL5 LOAD TRANSLATION ACCESS:         60  HIT:         60  MISS:          0  HIT %:        100  MISS %:          0   MPKI: 0
PSCL5 PREFETCH  REQUESTED:          0  ISSUED:          0  USEFUL:          0  USELESS:          0
PSCL5 USEFUL LOAD PREFETCHES:          0 PREFETCH ISSUED TO LOWER LEVEL:          0  ACCURACY: -nan
PSCL5 TIMELY PREFETCHES:          0 LATE PREFETCHES: 0 DROPPED PREFETCHES: 0
PSCL5 PREFETCHES SAME FILL-ORIGIN LEVEL: 0 DIFFERENT FILL-ORIGIN LEVEL: 0

PSCL4 TOTAL     ACCESS:         60  HIT:         60  MISS:          0  HIT %:        100  MISS %:          0   MPKI: 0
PSCL4 LOAD TRANSLATION ACCESS:         60  HIT:         60  MISS:          0  HIT %:        100  MISS %:          0   MPKI: 0
PSCL4 PREFETCH  REQUESTED:          0  ISSUED:          0  USEFUL:          0  USELESS:          0
PSCL4 USEFUL LOAD PREFETCHES:          0 PREFETCH ISSUED TO LOWER LEVEL:          0  ACCURACY: -nan
PSCL4 TIMELY PREFETCHES:          0 LATE PREFETCHES: 0 DROPPED PREFETCHES: 0
PSCL4 PREFETCHES SAME FILL-ORIGIN LEVEL: 0 DIFFERENT FILL-ORIGIN LEVEL: 0

PSCL3 TOTAL     ACCESS:         60  HIT:         60  MISS:          0  HIT %:        100  MISS %:          0   MPKI: 0
PSCL3 LOAD TRANSLATION ACCESS:         60  HIT:         60  MISS:          0  HIT %:        100  MISS %:          0   MPKI: 0
PSCL3 PREFETCH  REQUESTED:          0  ISSUED:          0  USEFUL:          0  USELESS:          0
PSCL3 USEFUL LOAD PREFETCHES:          0 PREFETCH ISSUED TO LOWER LEVEL:          0  ACCURACY: -nan
PSCL3 TIMELY PREFETCHES:          0 LATE PREFETCHES: 0 DROPPED PREFETCHES: 0
PSCL3 PREFETCHES SAME FILL-ORIGIN LEVEL: 0 DIFFERENT FILL-ORIGIN LEVEL: 0

PSCL2 TOTAL     ACCESS:         60  HIT:         60  MISS:          0  HIT %:        100  MISS %:          0   MPKI: 0
PSCL2 LOAD TRANSLATION ACCESS:         60  HIT:         60  MISS:          0  HIT %:        100  MISS %:          0   MPKI: 0
PSCL2 PREFETCH  REQUESTED:          0  ISSUED:          0  USEFUL:          0  USELESS:          0
PSCL2 USEFUL LOAD PREFETCHES:          0 PREFETCH ISSUED TO LOWER LEVEL:          0  ACCURACY: -nan
PSCL2 TIMELY PREFETCHES:          0 LATE PREFETCHES: 0 DROPPED PREFETCHES: 0
PSCL2 PREFETCHES SAME FILL-ORIGIN LEVEL: 0 DIFFERENT FILL-ORIGIN LEVEL: 0

LLC TOTAL     ACCESS:       1861  HIT:        656  MISS:       1205  HIT %:    35.2499  MISS %:    64.7501   MPKI: 0.0241
LLC LOAD      ACCESS:        653  HIT:        213  MISS:        440  HIT %:    32.6187  MISS %:    67.3813   MPKI: 0.0088
LLC RFO       ACCESS:          1  HIT:          0  MISS:          1  HIT %:          0  MISS %:        100   MPKI: 2e-05
LLC PREFETCH  ACCESS:       1091  HIT:        350  MISS:        741  HIT %:    32.0807  MISS %:    67.9193   MPKI: 0.01482
AGUS PREFETCH L1 MISS: 0
LLC WRITEBACK ACCESS:         88  HIT:         88  MISS:          0  HIT %:        100  MISS %:          0   MPKI: 0
LLC LOAD TRANSLATION ACCESS:         28  HIT:          5  MISS:         23  HIT %:    17.8571  MISS %:    82.1429   MPKI: 0.00046
LLC PREFETCH  REQUESTED:          0  ISSUED:          0  USEFUL:         29  USELESS:          0
LLC USEFUL LOAD PREFETCHES:         29 PREFETCH ISSUED TO LOWER LEVEL:        741  ACCURACY: 3.91363
LLC TIMELY PREFETCHES:         29 LATE PREFETCHES: 0 DROPPED PREFETCHES: 0
LLC PREFETCHES SAME FILL-ORIGIN LEVEL: 0 DIFFERENT FILL-ORIGIN LEVEL: 0
LLC AVERAGE MISS LATENCY: 138.299 cycles
LLC RQ	ACCESS:        682	FORWARD:          0	MERGED:          0	TO_CACHE:        682
LLC WQ	ACCESS:         88	FORWARD:          0	MERGED:          0	TO_CACHE:         88
LLC PQ	ACCESS:       1091	FORWARD:          0	MERGED:          0	TO_CACHE:       1091

LLC Dense regions hint to LLC: 0

RAW hits: 372774
Loads Generated: 13568012
Loads sent to L1D: 13195238
Stores Generated: 5819012
Stores sent to L1D: 5819015
Major fault: 0 Minor fault: 510
Allocated PAGES: 510

stream: 
stream:times selected: 123918
stream:pref_filled: 68270
stream:pref_useful: 25537
stream:pref_late: 174
stream:misses: 23985
stream:misses_by_poll: 0

CS: 
CS:times selected: 3386
CS:pref_filled: 5959
CS:pref_useful: 5107
CS:pref_late: 295
CS:misses: 3130
CS:misses_by_poll: 2

CPLX: 
CPLX:times selected: 119215
CPLX:pref_filled: 2074
CPLX:pref_useful: 690
CPLX:pref_late: 3
CPLX:misses: 97955
CPLX:misses_by_poll: 0

NL_L1: 
NL:times selected: 959
NL:pref_filled: 591
NL:pref_useful: 98
NL:pref_late: 0
NL:misses: 1028
NL:misses_by_poll: 0

Coverage: 36.67
total selections: 247478
total_filled: 81385
total_useful: 41802
total_late: 600
total_polluted: 2
total_misses_after_warmup: 74598
conflicts: 7361

test: 60266
ISB Prefetcher final stats
Training Unit Size: 105
Addr table size: 4308 4313


Triggers: 123921
No Prediction: 15265 12.3183
Stream end: 105123
No translation: 106911506 86273.9
Predictions: 133848 108.011


Stream divergence: 33368 26.9268
Stream divergence -- new stream: 0

DRAM Statistics
 CHANNEL 0
 RQ ROW_BUFFER_HIT:        382  ROW_BUFFER_MISS:        823
 DBUS_CONGESTED:          0
 WQ ROW_BUFFER_HIT:          0  ROW_BUFFER_MISS:          0  FULL:          0

 AVG_CONGESTED_CYCLE: -
 All warmup complete: 2
Channel 0 Bank busy for read cycles: 0
Channel 0 Bank busy for write cycles: 0
Channel 0
Rank 0
0banks busy for read cycles: 144146468
0banks busy for write cycles: 0
1banks busy for read cycles: 80461
1banks busy for write cycles: 0
2banks busy for read cycles: 23918
2banks busy for write cycles: 0
3banks busy for read cycles: 2173
3banks busy for write cycles: 0
4banks busy for read cycles: 1551
4banks busy for write cycles: 0
5banks busy for read cycles: 306
5banks busy for write cycles: 0
6banks busy for read cycles: 0
6banks busy for write cycles: 0
7banks busy for read cycles: 0
7banks busy for write cycles: 0
8banks busy for read cycles: 0
8banks busy for write cycles: 0

CPU 0 Branch Prediction Accuracy: 87.1506% MPKI: 21.5948 Average ROB Occupancy at Mispredict: 15.8031
Branch types
NOT_BRANCH: 41596715 83.1934%
BRANCH_DIRECT_JUMP: 264171 0.528342%
BRANCH_INDIRECT: 357 0.000714%
BRANCH_CONDITIONAL: 5174172 10.3483%
BRANCH_DIRECT_CALL: 1482157 2.96431%
BRANCH_INDIRECT_CALL: 0 0%
BRANCH_RETURN: 1482158 2.96432%
BRANCH_OTHER: 0 0%

DRAM PAGES: 1048576
Allocated PAGES: 510
