
*** ChampSim Multicore Out-of-Order Simulator ***

Warmup Instructions: 50000000
Simulation Instructions: 50000000
Number of CPUs: 1
LLC sets: 2048
LLC ways: 16
Off-chip DRAM Size: 4096 MB Channels: 1 Width: 64-bit Data Rate: 6400 MT/s
CPU 0 runs ./traces/SPEC-CPU2017/644.nab_s-12459B.champsimtrace.xz
.xz
CPU 0 Bimodal branch predictor
BTB has LRU replacement policy
ITLB has LRU replacement policy
DTLB has LRU replacement policy
STLB has LRU replacement policy
L1I has LRU replacement policy
L1D has LRU replacement policy
L2C has LRU replacement policy
LLC has LRU replacement policy
Heartbeat CPU 0 instructions: 10000001 cycles: 3163478 heartbeat IPC: 3.16108 cumulative IPC: 3.16108 (Simulation time: 0 hr 8 min 58 sec) 
Heartbeat CPU 0 instructions: 20000000 cycles: 6332455 heartbeat IPC: 3.15559 cumulative IPC: 3.15833 (Simulation time: 0 hr 19 min 8 sec) 
Heartbeat CPU 0 instructions: 30000003 cycles: 9501408 heartbeat IPC: 3.15562 cumulative IPC: 3.15743 (Simulation time: 0 hr 30 min 47 sec) 
Heartbeat CPU 0 instructions: 40000000 cycles: 12667794 heartbeat IPC: 3.15817 cumulative IPC: 3.15761 (Simulation time: 0 hr 42 min 19 sec) 
Heartbeat CPU 0 instructions: 50000001 cycles: 15832419 heartbeat IPC: 3.15993 cumulative IPC: 3.15808 (Simulation time: 0 hr 51 min 50 sec) 

Warmup complete CPU 0 instructions: 50000001 cycles: 15832419 (Simulation time: 0 hr 51 min 50 sec) 

Heartbeat CPU 0 instructions: 60000000 cycles: 35011950 heartbeat IPC: 0.521389 cumulative IPC: 0.521389 (Simulation time: 0 hr 57 min 27 sec) 
Heartbeat CPU 0 instructions: 70000002 cycles: 54430008 heartbeat IPC: 0.514985 cumulative IPC: 0.518167 (Simulation time: 1 hr 2 min 37 sec) 
Heartbeat CPU 0 instructions: 80000000 cycles: 73724734 heartbeat IPC: 0.518276 cumulative IPC: 0.518203 (Simulation time: 1 hr 7 min 39 sec) 
Heartbeat CPU 0 instructions: 90000000 cycles: 92915901 heartbeat IPC: 0.521073 cumulative IPC: 0.518918 (Simulation time: 1 hr 12 min 13 sec) 
Heartbeat CPU 0 instructions: 100000000 cycles: 112438641 heartbeat IPC: 0.512223 cumulative IPC: 0.517565 (Simulation time: 1 hr 16 min 55 sec) 
Finished CPU 0 instructions: 50000000 cycles: 96606230 cumulative IPC: 0.517565 (Simulation time: 1 hr 16 min 55 sec) 

ChampSim completed all CPUs

Region of Interest Statistics

CPU 0 cumulative IPC: 0.517565 instructions: 50000000 cycles: 96606230
ITLB TOTAL     ACCESS:    7448515  HIT:    7448515  MISS:          0  HIT %:        100  MISS %:          0   MPKI: 0
ITLB LOAD TRANSLATION ACCESS:    7448515  HIT:    7448515  MISS:          0  HIT %:        100  MISS %:          0   MPKI: 0
ITLB PREFETCH  REQUESTED:          0  ISSUED:          0  USEFUL:          0  USELESS:          0
ITLB USEFUL LOAD PREFETCHES:          0 PREFETCH ISSUED TO LOWER LEVEL:          0  ACCURACY: -nan
ITLB TIMELY PREFETCHES:          0 LATE PREFETCHES: 0 DROPPED PREFETCHES: 0
ITLB PREFETCHES SAME FILL-ORIGIN LEVEL: 0 DIFFERENT FILL-ORIGIN LEVEL: 0
ITLB AVERAGE MISS LATENCY: -nan cycles
ITLB RQ	ACCESS:    8393607	FORWARD:          0	MERGED:     945093	TO_CACHE:    7448514

DTLB TOTAL     ACCESS:   10694097  HIT:   10681386  MISS:      12711  HIT %:    99.8811  MISS %:    0.11886   MPKI: 0.25422
DTLB LOAD TRANSLATION ACCESS:   10694097  HIT:   10681386  MISS:      12711  HIT %:    99.8811  MISS %:    0.11886   MPKI: 0.25422
DTLB PREFETCH  REQUESTED:          0  ISSUED:          0  USEFUL:          0  USELESS:          0
DTLB USEFUL LOAD PREFETCHES:          0 PREFETCH ISSUED TO LOWER LEVEL:          0  ACCURACY: -nan
DTLB TIMELY PREFETCHES:          0 LATE PREFETCHES: 0 DROPPED PREFETCHES: 0
DTLB PREFETCHES SAME FILL-ORIGIN LEVEL: 0 DIFFERENT FILL-ORIGIN LEVEL: 0
DTLB AVERAGE MISS LATENCY: 10.3545 cycles
DTLB RQ	ACCESS:   12810273	FORWARD:          0	MERGED:    2115653	TO_CACHE:   10694620

STLB TOTAL     ACCESS:    2614301  HIT:    2614187  MISS:        114  HIT %:    99.9956  MISS %: 0.00436063   MPKI: 0.00228
STLB LOAD TRANSLATION ACCESS:      12711  HIT:      12597  MISS:        114  HIT %:    99.1031  MISS %:   0.896861   MPKI: 0.00228
STLB TRANSLATION FROM L1D PREFETCHER ACCESS:    2601590  HIT:    2601590  MISS:          0  HIT %:        100  MISS %:          0   MPKI: 0
STLB PREFETCH  REQUESTED:          0  ISSUED:          0  USEFUL:          0  USELESS:          0
STLB USEFUL LOAD PREFETCHES:          0 PREFETCH ISSUED TO LOWER LEVEL:          0  ACCURACY: -nan
STLB TIMELY PREFETCHES:          0 LATE PREFETCHES: 0 DROPPED PREFETCHES: 0
STLB PREFETCHES SAME FILL-ORIGIN LEVEL: 0 DIFFERENT FILL-ORIGIN LEVEL: 0
STLB AVERAGE MISS LATENCY: 147.018 cycles
STLB RQ	ACCESS:    7552788	FORWARD:          0	MERGED:    4938487	TO_CACHE:    2614301

STLB Hit, L1D data hit: 0
STLB Hit, L2C data hit: 0
STLB Hit, LLC data hit: 0
STLB Hit, LLC data miss: 0
STLB STLB hints to L2: 0
L1D TOTAL     ACCESS:   20244617  HIT:   19716127  MISS:     528490  HIT %:    97.3895  MISS %:    2.61052   MPKI: 10.5698
L1D LOAD      ACCESS:    7640101  HIT:    7583082  MISS:      57019  HIT %:    99.2537  MISS %:   0.746312   MPKI: 1.14038
L1D RFO       ACCESS:    5068254  HIT:    5053367  MISS:      14887  HIT %:    99.7063  MISS %:    0.29373   MPKI: 0.29774
L1D PREFETCH  ACCESS:    7536262  HIT:    7079678  MISS:     456584  HIT %:    93.9415  MISS %:    6.05849   MPKI: 9.13168
AGUS PREFETCH L1 MISS: 0
L1D PREFETCH  REQUESTED:   15771478  ISSUED:   15082737  USEFUL:     259044  USELESS:     197453
L1D USEFUL LOAD PREFETCHES:     259044 PREFETCH ISSUED TO LOWER LEVEL:     457067  ACCURACY: 56.6753
L1D TIMELY PREFETCHES:     259044 LATE PREFETCHES: 482 DROPPED PREFETCHES: 0
L1D PREFETCHES SAME FILL-ORIGIN LEVEL: 457067 DIFFERENT FILL-ORIGIN LEVEL: 0
L1D AVERAGE MISS LATENCY: 22.9207 cycles
L1D RQ	ACCESS:   12029234	FORWARD:          0	MERGED:    4382265	TO_CACHE:    7641559
L1D WQ	ACCESS:    5169829	FORWARD:       7993	MERGED:       1115	TO_CACHE:    5168714
L1D PQ	ACCESS:    7542660	FORWARD:          0	MERGED:          0	TO_CACHE:    7540077

L1D UNIQUE REGIONS ACCESSED: 0
L1D REGIONS CONFLICTS: 0
L1D Cross Page Prefetch Requests: 518274
L1D Same Page Prefetch Requests: 13903913
L1D ROI Sum of L1D PQ occupancy: 102739881
L1D PREFETCHES PUSHED FROM L2C: 0
L1I TOTAL     ACCESS:    8393607  HIT:    8393607  MISS:          0  HIT %:        100  MISS %:          0   MPKI: 0
L1I LOAD      ACCESS:    8393607  HIT:    8393607  MISS:          0  HIT %:        100  MISS %:          0   MPKI: 0
L1I PREFETCH  REQUESTED:          0  ISSUED:          0  USEFUL:          0  USELESS:          0
L1I USEFUL LOAD PREFETCHES:          0 PREFETCH ISSUED TO LOWER LEVEL:          0  ACCURACY: -nan
L1I TIMELY PREFETCHES:          0 LATE PREFETCHES: 0 DROPPED PREFETCHES: 0
L1I PREFETCHES SAME FILL-ORIGIN LEVEL: 0 DIFFERENT FILL-ORIGIN LEVEL: 0
L1I AVERAGE MISS LATENCY: -nan cycles
L1I RQ	ACCESS:   11984315	FORWARD:          0	MERGED:    3590708	TO_CACHE:    8393607

BTB TOTAL     ACCESS:    7002804  HIT:    7002468  MISS:        336  HIT %:    99.9952  MISS %: 0.00479808   MPKI: 0.00672
BTB BRANCH_DIRECT_JUMP	ACCESS:     384475  HIT:     384464  MISS:         11
BTB BRANCH_INDIRECT	ACCESS:          0  HIT:          0  MISS:          0
BTB BRANCH_CONDITIONAL	ACCESS:    6297199  HIT:    6297152  MISS:         47
BTB BRANCH_DIRECT_CALL	ACCESS:     160565  HIT:     160558  MISS:          7
BTB BRANCH_INDIRECT_CALL	ACCESS:          0  HIT:          0  MISS:          0
BTB BRANCH_RETURN	ACCESS:     160565  HIT:     160294  MISS:        271
BTB BRANCH_OTHER ACCESS:          0  HIT:          0  MISS:          0

L2C TOTAL     ACCESS:     552072  HIT:     445078  MISS:     106994  HIT %:    80.6196  MISS %:    19.3804   MPKI: 2.13988
L2C LOAD      ACCESS:      56537  HIT:      46686  MISS:       9851  HIT %:     82.576  MISS %:     17.424   MPKI: 0.19702
L2C DATA LOAD MPKI: 0.19702
L2C INSTRUCTION LOAD MPKI: 0
L2C RFO       ACCESS:      14886  HIT:       7503  MISS:       7383  HIT %:    50.4031  MISS %:    49.5969   MPKI: 0.14766
L2C PREFETCH  ACCESS:     457066  HIT:     367421  MISS:      89645  HIT %:    80.3869  MISS %:    19.6131   MPKI: 1.7929
AGUS PREFETCH L1 MISS: 0
L2C DATA PREFETCH MPKI: 1.7929
L2C INSTRUCTION PREFETCH MPKI: 0
L2C WRITEBACK ACCESS:      23469  HIT:      23418  MISS:         51  HIT %:    99.7827  MISS %:   0.217308   MPKI: 0.00102
L2C LOAD TRANSLATION ACCESS:        114  HIT:         50  MISS:         64  HIT %:    43.8596  MISS %:    56.1404   MPKI: 0.00128
L2C PREFETCH  REQUESTED:          0  ISSUED:          0  USEFUL:       3081  USELESS:      86358
L2C USEFUL LOAD PREFETCHES:       3081 PREFETCH ISSUED TO LOWER LEVEL:      89645  ACCURACY: 3.43689
L2C TIMELY PREFETCHES:       3081 LATE PREFETCHES: 0 DROPPED PREFETCHES: 0
L2C PREFETCHES SAME FILL-ORIGIN LEVEL: 0 DIFFERENT FILL-ORIGIN LEVEL: 0
L2C AVERAGE MISS LATENCY: 35.8422 cycles
L2C RQ	ACCESS:      71538	FORWARD:          0	MERGED:          0	TO_CACHE:      71538
L2C WQ	ACCESS:      23469	FORWARD:          1	MERGED:          0	TO_CACHE:      23469
L2C PQ	ACCESS:     457067	FORWARD:          0	MERGED:          0	TO_CACHE:     457066

L2C Instructions Evicting Data 0
L2C Translations Evicting Data 64
L2C Data Evicting Data 106815
L2C Instructions Evicting Instructions 0
L2C Translations Evicting Instructions 0
L2C Data Evicting Instructions 0
L2C Instructions Evicting Translations 0
L2C Translations Evicting Translations 0
L2C Data Evicting Translations 64
L2C Dense regions hint from L2: 0
PSCL5 TOTAL     ACCESS:        114  HIT:        114  MISS:          0  HIT %:        100  MISS %:          0   MPKI: 0
PSCL5 LOAD TRANSLATION ACCESS:        114  HIT:        114  MISS:          0  HIT %:        100  MISS %:          0   MPKI: 0
PSCL5 PREFETCH  REQUESTED:          0  ISSUED:          0  USEFUL:          0  USELESS:          0
PSCL5 USEFUL LOAD PREFETCHES:          0 PREFETCH ISSUED TO LOWER LEVEL:          0  ACCURACY: -nan
PSCL5 TIMELY PREFETCHES:          0 LATE PREFETCHES: 0 DROPPED PREFETCHES: 0
PSCL5 PREFETCHES SAME FILL-ORIGIN LEVEL: 0 DIFFERENT FILL-ORIGIN LEVEL: 0

PSCL4 TOTAL     ACCESS:        114  HIT:        114  MISS:          0  HIT %:        100  MISS %:          0   MPKI: 0
PSCL4 LOAD TRANSLATION ACCESS:        114  HIT:        114  MISS:          0  HIT %:        100  MISS %:          0   MPKI: 0
PSCL4 PREFETCH  REQUESTED:          0  ISSUED:          0  USEFUL:          0  USELESS:          0
PSCL4 USEFUL LOAD PREFETCHES:          0 PREFETCH ISSUED TO LOWER LEVEL:          0  ACCURACY: -nan
PSCL4 TIMELY PREFETCHES:          0 LATE PREFETCHES: 0 DROPPED PREFETCHES: 0
PSCL4 PREFETCHES SAME FILL-ORIGIN LEVEL: 0 DIFFERENT FILL-ORIGIN LEVEL: 0

PSCL3 TOTAL     ACCESS:        114  HIT:        114  MISS:          0  HIT %:        100  MISS %:          0   MPKI: 0
PSCL3 LOAD TRANSLATION ACCESS:        114  HIT:        114  MISS:          0  HIT %:        100  MISS %:          0   MPKI: 0
PSCL3 PREFETCH  REQUESTED:          0  ISSUED:          0  USEFUL:          0  USELESS:          0
PSCL3 USEFUL LOAD PREFETCHES:          0 PREFETCH ISSUED TO LOWER LEVEL:          0  ACCURACY: -nan
PSCL3 TIMELY PREFETCHES:          0 LATE PREFETCHES: 0 DROPPED PREFETCHES: 0
PSCL3 PREFETCHES SAME FILL-ORIGIN LEVEL: 0 DIFFERENT FILL-ORIGIN LEVEL: 0

PSCL2 TOTAL     ACCESS:        114  HIT:        114  MISS:          0  HIT %:        100  MISS %:          0   MPKI: 0
PSCL2 LOAD TRANSLATION ACCESS:        114  HIT:        114  MISS:          0  HIT %:        100  MISS %:          0   MPKI: 0
PSCL2 PREFETCH  REQUESTED:          0  ISSUED:          0  USEFUL:          0  USELESS:          0
PSCL2 USEFUL LOAD PREFETCHES:          0 PREFETCH ISSUED TO LOWER LEVEL:          0  ACCURACY: -nan
PSCL2 TIMELY PREFETCHES:          0 LATE PREFETCHES: 0 DROPPED PREFETCHES: 0
PSCL2 PREFETCHES SAME FILL-ORIGIN LEVEL: 0 DIFFERENT FILL-ORIGIN LEVEL: 0

LLC TOTAL     ACCESS:     114489  HIT:     106694  MISS:       7795  HIT %:    93.1915  MISS %:    6.80851   MPKI: 0.1559
LLC LOAD      ACCESS:       9851  HIT:       9831  MISS:         20  HIT %:     99.797  MISS %:   0.203025   MPKI: 0.0004
LLC RFO       ACCESS:       7383  HIT:         46  MISS:       7337  HIT %:   0.623053  MISS %:    99.3769   MPKI: 0.14674
LLC PREFETCH  ACCESS:      89645  HIT:      89221  MISS:        424  HIT %:     99.527  MISS %:   0.472977   MPKI: 0.00848
AGUS PREFETCH L1 MISS: 0
LLC WRITEBACK ACCESS:       7546  HIT:       7546  MISS:          0  HIT %:        100  MISS %:          0   MPKI: 0
LLC LOAD TRANSLATION ACCESS:         64  HIT:         50  MISS:         14  HIT %:     78.125  MISS %:     21.875   MPKI: 0.00028
LLC PREFETCH  REQUESTED:          0  ISSUED:          0  USEFUL:        173  USELESS:          0
LLC USEFUL LOAD PREFETCHES:        173 PREFETCH ISSUED TO LOWER LEVEL:        424  ACCURACY: 40.8019
LLC TIMELY PREFETCHES:        173 LATE PREFETCHES: 0 DROPPED PREFETCHES: 0
LLC PREFETCHES SAME FILL-ORIGIN LEVEL: 0 DIFFERENT FILL-ORIGIN LEVEL: 0
LLC AVERAGE MISS LATENCY: 80.135 cycles
LLC RQ	ACCESS:      17299	FORWARD:          0	MERGED:          0	TO_CACHE:      17299
LLC WQ	ACCESS:       7546	FORWARD:          0	MERGED:          0	TO_CACHE:       7546
LLC PQ	ACCESS:      89645	FORWARD:          0	MERGED:          0	TO_CACHE:      89645

LLC Dense regions hint to LLC: 0

RAW hits: 596122
Loads Generated: 12625359
Loads sent to L1D: 12029234
Stores Generated: 5169829
Stores sent to L1D: 5169829
Major fault: 0 Minor fault: 468
Allocated PAGES: 468

stream: 
stream:times selected: 9604493
stream:pref_reqs: 55176711
stream:pref_reqs_filtered_out: 44694438
stream:pref_filled: 513532
stream:pref_useful: 300701
stream:pref_late: 843
stream:misses: 797
stream:misses_by_poll: 0

CS: 
CS:times selected: 639718
CS:pref_reqs: 1911380
CS:pref_reqs_filtered_out: 1480289
CS:pref_filled: 4661
CS:pref_useful: 3375
CS:pref_late: 0
CS:misses: 9
CS:misses_by_poll: 5

CPLX: 
CPLX:times selected: 8949884
CPLX:pref_reqs: 12915377
CPLX:pref_reqs_filtered_out: 9763302
CPLX:pref_filled: 201261
CPLX:pref_useful: 88080
CPLX:pref_late: 95
CPLX:misses: 8389
CPLX:misses_by_poll: 1494

ISB: 
ISB:total access:11219131
ISB:times selected:10186215
ISB:canary counter:0
ISB:pref_reqs: 8534446
ISB:pref_reqs_filtered_out: 6102582
ISB:pref_filled: 106837
ISB:pref_useful: 89525
ISB:pref_late: 64
ISB:misses: 88588
ISB:misses_by_poll: 561
ISB:Stream end: 10154559
ISB:No Prediction: 1032916 9.20674
ISB:No translation: 1638970750
ISB:Predictions: 1859573 16.575

NL_L1: 
NL:times selected: 21277
NL:pref_reqs: 21277
NL:pref_reqs_filtered_out: 12076
NL:pref_filled: 1024
NL:pref_useful: 503
NL:pref_late: 2
NL:misses: 526
NL:misses_by_poll: 0

Coverage: 81.9596
total selections: 29401587
total_filled: 456584
total_useful: 259044
total_late: 1155
total_polluted: 2060
total_misses_after_warmup: 58477
conflicts: 559911

test: 0
ISB Prefetcher final stats
Prefetcher final stats
Training Unit Size: 125
Addr table size: 7493 47286
Triggers: 11219131
Structural address exists: 10186215 90.7933
No Prediction: 1032916 9.20674
Prefetches issued: 1859573 16.575
Stream end: 10154559
No translation: 1638970750
%Stream divergence: 1256772 11.202
Stream divergence -- new stream: 0
A: 0
B: 0
C: 9604496
D: 9604496
E: 9604496
F: 0
G: 0

DRAM Statistics
 CHANNEL 0
 RQ ROW_BUFFER_HIT:       7011  ROW_BUFFER_MISS:        784
 DBUS_CONGESTED:          0
 WQ ROW_BUFFER_HIT:          0  ROW_BUFFER_MISS:          0  FULL:          0

 AVG_CONGESTED_CYCLE: -
 All warmup complete: 2
Channel 0 Bank busy for read cycles: 0
Channel 0 Bank busy for write cycles: 0
Channel 0
Rank 0
0banks busy for read cycles: 96166963
0banks busy for write cycles: 0
1banks busy for read cycles: 414421
1banks busy for write cycles: 0
2banks busy for read cycles: 23007
2banks busy for write cycles: 0
3banks busy for read cycles: 912
3banks busy for write cycles: 0
4banks busy for read cycles: 248
4banks busy for write cycles: 0
5banks busy for read cycles: 215
5banks busy for write cycles: 0
6banks busy for read cycles: 333
6banks busy for write cycles: 0
7banks busy for read cycles: 132
7banks busy for write cycles: 0
8banks busy for read cycles: 0
8banks busy for write cycles: 0

CPU 0 Branch Prediction Accuracy: 90.9587% MPKI: 12.7456 Average ROB Occupancy at Mispredict: 39.2527
Branch types
NOT_BRANCH: 42951475 85.903%
BRANCH_DIRECT_JUMP: 384475 0.76895%
BRANCH_INDIRECT: 0 0%
BRANCH_CONDITIONAL: 6342934 12.6859%
BRANCH_DIRECT_CALL: 160565 0.32113%
BRANCH_INDIRECT_CALL: 0 0%
BRANCH_RETURN: 160565 0.32113%
BRANCH_OTHER: 0 0%

DRAM PAGES: 1048576
Allocated PAGES: 468
