
*** ChampSim Multicore Out-of-Order Simulator ***

Warmup Instructions: 50000000
Simulation Instructions: 50000000
Number of CPUs: 1
LLC sets: 2048
LLC ways: 16
Off-chip DRAM Size: 4096 MB Channels: 1 Width: 64-bit Data Rate: 6400 MT/s
CPU 0 runs ./traces/SPEC-CPU2017/644.nab_s-12459B.champsimtrace.xz
.xz
CPU 0 Bimodal branch predictor
BTB has LRU replacement policy
ITLB has LRU replacement policy
DTLB has LRU replacement policy
STLB has LRU replacement policy
L1I has LRU replacement policy
L1D has LRU replacement policy
L2C has LRU replacement policy
LLC has LRU replacement policy
Heartbeat CPU 0 instructions: 10000001 cycles: 3163466 heartbeat IPC: 3.16109 cumulative IPC: 3.16109 (Simulation time: 0 hr 11 min 14 sec) 
Heartbeat CPU 0 instructions: 20000000 cycles: 6332475 heartbeat IPC: 3.15556 cumulative IPC: 3.15832 (Simulation time: 0 hr 22 min 57 sec) 
Heartbeat CPU 0 instructions: 30000003 cycles: 9501449 heartbeat IPC: 3.1556 cumulative IPC: 3.15741 (Simulation time: 0 hr 35 min 6 sec) 
Heartbeat CPU 0 instructions: 40000000 cycles: 12667827 heartbeat IPC: 3.15818 cumulative IPC: 3.15761 (Simulation time: 0 hr 46 min 24 sec) 
Heartbeat CPU 0 instructions: 50000001 cycles: 15832444 heartbeat IPC: 3.15994 cumulative IPC: 3.15807 (Simulation time: 0 hr 57 min 48 sec) 

Warmup complete CPU 0 instructions: 50000001 cycles: 15832444 (Simulation time: 0 hr 57 min 48 sec) 

Heartbeat CPU 0 instructions: 60000000 cycles: 34982344 heartbeat IPC: 0.522196 cumulative IPC: 0.522196 (Simulation time: 1 hr 0 min 51 sec) 
Heartbeat CPU 0 instructions: 70000002 cycles: 54367080 heartbeat IPC: 0.51587 cumulative IPC: 0.519014 (Simulation time: 1 hr 3 min 57 sec) 
Heartbeat CPU 0 instructions: 80000000 cycles: 73634503 heartbeat IPC: 0.519011 cumulative IPC: 0.519013 (Simulation time: 1 hr 6 min 31 sec) 
Heartbeat CPU 0 instructions: 90000000 cycles: 92804742 heartbeat IPC: 0.521642 cumulative IPC: 0.519667 (Simulation time: 1 hr 8 min 56 sec) 
Heartbeat CPU 0 instructions: 100000000 cycles: 112314711 heartbeat IPC: 0.512558 cumulative IPC: 0.51823 (Simulation time: 1 hr 11 min 20 sec) 
Finished CPU 0 instructions: 50000000 cycles: 96482275 cumulative IPC: 0.51823 (Simulation time: 1 hr 11 min 20 sec) 

ChampSim completed all CPUs

Region of Interest Statistics

CPU 0 cumulative IPC: 0.51823 instructions: 50000000 cycles: 96482275
ITLB TOTAL     ACCESS:    7448515  HIT:    7448515  MISS:          0  HIT %:        100  MISS %:          0   MPKI: 0
ITLB LOAD TRANSLATION ACCESS:    7448515  HIT:    7448515  MISS:          0  HIT %:        100  MISS %:          0   MPKI: 0
ITLB PREFETCH  REQUESTED:          0  ISSUED:          0  USEFUL:          0  USELESS:          0
ITLB USEFUL LOAD PREFETCHES:          0 PREFETCH ISSUED TO LOWER LEVEL:          0  ACCURACY: -nan
ITLB TIMELY PREFETCHES:          0 LATE PREFETCHES: 0 DROPPED PREFETCHES: 0
ITLB PREFETCHES SAME FILL-ORIGIN LEVEL: 0 DIFFERENT FILL-ORIGIN LEVEL: 0
ITLB AVERAGE MISS LATENCY: -nan cycles
ITLB RQ	ACCESS:    8393607	FORWARD:          0	MERGED:     945093	TO_CACHE:    7448514

DTLB TOTAL     ACCESS:   10700269  HIT:   10687557  MISS:      12712  HIT %:    99.8812  MISS %:   0.118801   MPKI: 0.25424
DTLB LOAD TRANSLATION ACCESS:   10700269  HIT:   10687557  MISS:      12712  HIT %:    99.8812  MISS %:   0.118801   MPKI: 0.25424
DTLB PREFETCH  REQUESTED:          0  ISSUED:          0  USEFUL:          0  USELESS:          0
DTLB USEFUL LOAD PREFETCHES:          0 PREFETCH ISSUED TO LOWER LEVEL:          0  ACCURACY: -nan
DTLB TIMELY PREFETCHES:          0 LATE PREFETCHES: 0 DROPPED PREFETCHES: 0
DTLB PREFETCHES SAME FILL-ORIGIN LEVEL: 0 DIFFERENT FILL-ORIGIN LEVEL: 0
DTLB AVERAGE MISS LATENCY: 10.3735 cycles
DTLB RQ	ACCESS:   12808859	FORWARD:          0	MERGED:    2108047	TO_CACHE:   10700812

STLB TOTAL     ACCESS:    3228908  HIT:    3228794  MISS:        114  HIT %:    99.9965  MISS %: 0.00353061   MPKI: 0.00228
STLB LOAD TRANSLATION ACCESS:      12712  HIT:      12598  MISS:        114  HIT %:    99.1032  MISS %:    0.89679   MPKI: 0.00228
STLB TRANSLATION FROM L1D PREFETCHER ACCESS:    3216196  HIT:    3216196  MISS:          0  HIT %:        100  MISS %:          0   MPKI: 0
STLB PREFETCH  REQUESTED:          0  ISSUED:          0  USEFUL:          0  USELESS:          0
STLB USEFUL LOAD PREFETCHES:          0 PREFETCH ISSUED TO LOWER LEVEL:          0  ACCURACY: -nan
STLB TIMELY PREFETCHES:          0 LATE PREFETCHES: 0 DROPPED PREFETCHES: 0
STLB PREFETCHES SAME FILL-ORIGIN LEVEL: 0 DIFFERENT FILL-ORIGIN LEVEL: 0
STLB AVERAGE MISS LATENCY: 150.175 cycles
STLB RQ	ACCESS:    8382851	FORWARD:          0	MERGED:    5153943	TO_CACHE:    3228908

STLB Hit, L1D data hit: 0
STLB Hit, L2C data hit: 0
STLB Hit, LLC data hit: 0
STLB Hit, LLC data miss: 0
STLB STLB hints to L2: 0
L1D TOTAL     ACCESS:   21075810  HIT:   20512566  MISS:     563244  HIT %:    97.3275  MISS %:    2.67247   MPKI: 11.2649
L1D LOAD      ACCESS:    7639088  HIT:    7612673  MISS:      26415  HIT %:    99.6542  MISS %:   0.345787   MPKI: 0.5283
L1D RFO       ACCESS:    5068338  HIT:    5053417  MISS:      14921  HIT %:    99.7056  MISS %:   0.294396   MPKI: 0.29842
L1D PREFETCH  ACCESS:    8368384  HIT:    7846476  MISS:     521908  HIT %:    93.7633  MISS %:    6.23666   MPKI: 10.4382
AGUS PREFETCH L1 MISS: 0
L1D PREFETCH  REQUESTED:   18295179  ISSUED:   16742455  USEFUL:     291067  USELESS:     230794
L1D USEFUL LOAD PREFETCHES:     291067 PREFETCH ISSUED TO LOWER LEVEL:     522241  ACCURACY: 55.7342
L1D TIMELY PREFETCHES:     291067 LATE PREFETCHES: 333 DROPPED PREFETCHES: 0
L1D PREFETCHES SAME FILL-ORIGIN LEVEL: 522241 DIFFERENT FILL-ORIGIN LEVEL: 0
L1D AVERAGE MISS LATENCY: 23.0569 cycles
L1D RQ	ACCESS:   12026416	FORWARD:          0	MERGED:    4380937	TO_CACHE:    7640145
L1D WQ	ACCESS:    5169829	FORWARD:       7495	MERGED:       1115	TO_CACHE:    5168714
L1D PQ	ACCESS:    8372316	FORWARD:          0	MERGED:         16	TO_CACHE:    8370139

L1D UNIQUE REGIONS ACCESSED: 0
L1D REGIONS CONFLICTS: 0
L1D Cross Page Prefetch Requests: 2518702
L1D Same Page Prefetch Requests: 13001576
L1D ROI Sum of L1D PQ occupancy: 117775797
L1D PREFETCHES PUSHED FROM L2C: 0
L1I TOTAL     ACCESS:    8393607  HIT:    8393607  MISS:          0  HIT %:        100  MISS %:          0   MPKI: 0
L1I LOAD      ACCESS:    8393607  HIT:    8393607  MISS:          0  HIT %:        100  MISS %:          0   MPKI: 0
L1I PREFETCH  REQUESTED:          0  ISSUED:          0  USEFUL:          0  USELESS:          0
L1I USEFUL LOAD PREFETCHES:          0 PREFETCH ISSUED TO LOWER LEVEL:          0  ACCURACY: -nan
L1I TIMELY PREFETCHES:          0 LATE PREFETCHES: 0 DROPPED PREFETCHES: 0
L1I PREFETCHES SAME FILL-ORIGIN LEVEL: 0 DIFFERENT FILL-ORIGIN LEVEL: 0
L1I AVERAGE MISS LATENCY: -nan cycles
L1I RQ	ACCESS:   11984315	FORWARD:          0	MERGED:    3590708	TO_CACHE:    8393607

BTB TOTAL     ACCESS:    7002804  HIT:    7002468  MISS:        336  HIT %:    99.9952  MISS %: 0.00479808   MPKI: 0.00672
BTB BRANCH_DIRECT_JUMP	ACCESS:     384475  HIT:     384464  MISS:         11
BTB BRANCH_INDIRECT	ACCESS:          0  HIT:          0  MISS:          0
BTB BRANCH_CONDITIONAL	ACCESS:    6297199  HIT:    6297152  MISS:         47
BTB BRANCH_DIRECT_CALL	ACCESS:     160565  HIT:     160558  MISS:          7
BTB BRANCH_INDIRECT_CALL	ACCESS:          0  HIT:          0  MISS:          0
BTB BRANCH_RETURN	ACCESS:     160565  HIT:     160294  MISS:        271
BTB BRANCH_OTHER ACCESS:          0  HIT:          0  MISS:          0

L2C TOTAL     ACCESS:     587094  HIT:     464669  MISS:     122425  HIT %:    79.1473  MISS %:    20.8527   MPKI: 2.4485
L2C LOAD      ACCESS:      26082  HIT:      21939  MISS:       4143  HIT %:    84.1155  MISS %:    15.8845   MPKI: 0.08286
L2C DATA LOAD MPKI: 0.08286
L2C INSTRUCTION LOAD MPKI: 0
L2C RFO       ACCESS:      14921  HIT:       7550  MISS:       7371  HIT %:    50.5998  MISS %:    49.4002   MPKI: 0.14742
L2C PREFETCH  ACCESS:     522241  HIT:     411443  MISS:     110798  HIT %:    78.7841  MISS %:    21.2159   MPKI: 2.21596
AGUS PREFETCH L1 MISS: 0
L2C DATA PREFETCH MPKI: 2.21596
L2C INSTRUCTION PREFETCH MPKI: 0
L2C WRITEBACK ACCESS:      23736  HIT:      23689  MISS:         47  HIT %:     99.802  MISS %:   0.198011   MPKI: 0.00094
L2C LOAD TRANSLATION ACCESS:        114  HIT:         48  MISS:         66  HIT %:    42.1053  MISS %:    57.8947   MPKI: 0.00132
L2C PREFETCH  REQUESTED:          0  ISSUED:          0  USEFUL:       2498  USELESS:     108076
L2C USEFUL LOAD PREFETCHES:       2498 PREFETCH ISSUED TO LOWER LEVEL:     110798  ACCURACY: 2.25455
L2C TIMELY PREFETCHES:       2498 LATE PREFETCHES: 0 DROPPED PREFETCHES: 0
L2C PREFETCHES SAME FILL-ORIGIN LEVEL: 0 DIFFERENT FILL-ORIGIN LEVEL: 0
L2C AVERAGE MISS LATENCY: 35.1039 cycles
L2C RQ	ACCESS:      41118	FORWARD:          0	MERGED:          0	TO_CACHE:      41118
L2C WQ	ACCESS:      23736	FORWARD:          0	MERGED:          0	TO_CACHE:      23736
L2C PQ	ACCESS:     522241	FORWARD:          0	MERGED:          0	TO_CACHE:     522241

L2C Instructions Evicting Data 0
L2C Translations Evicting Data 66
L2C Data Evicting Data 122246
L2C Instructions Evicting Instructions 0
L2C Translations Evicting Instructions 0
L2C Data Evicting Instructions 0
L2C Instructions Evicting Translations 0
L2C Translations Evicting Translations 0
L2C Data Evicting Translations 66
L2C Dense regions hint from L2: 0
PSCL5 TOTAL     ACCESS:        114  HIT:        114  MISS:          0  HIT %:        100  MISS %:          0   MPKI: 0
PSCL5 LOAD TRANSLATION ACCESS:        114  HIT:        114  MISS:          0  HIT %:        100  MISS %:          0   MPKI: 0
PSCL5 PREFETCH  REQUESTED:          0  ISSUED:          0  USEFUL:          0  USELESS:          0
PSCL5 USEFUL LOAD PREFETCHES:          0 PREFETCH ISSUED TO LOWER LEVEL:          0  ACCURACY: -nan
PSCL5 TIMELY PREFETCHES:          0 LATE PREFETCHES: 0 DROPPED PREFETCHES: 0
PSCL5 PREFETCHES SAME FILL-ORIGIN LEVEL: 0 DIFFERENT FILL-ORIGIN LEVEL: 0

PSCL4 TOTAL     ACCESS:        114  HIT:        114  MISS:          0  HIT %:        100  MISS %:          0   MPKI: 0
PSCL4 LOAD TRANSLATION ACCESS:        114  HIT:        114  MISS:          0  HIT %:        100  MISS %:          0   MPKI: 0
PSCL4 PREFETCH  REQUESTED:          0  ISSUED:          0  USEFUL:          0  USELESS:          0
PSCL4 USEFUL LOAD PREFETCHES:          0 PREFETCH ISSUED TO LOWER LEVEL:          0  ACCURACY: -nan
PSCL4 TIMELY PREFETCHES:          0 LATE PREFETCHES: 0 DROPPED PREFETCHES: 0
PSCL4 PREFETCHES SAME FILL-ORIGIN LEVEL: 0 DIFFERENT FILL-ORIGIN LEVEL: 0

PSCL3 TOTAL     ACCESS:        114  HIT:        114  MISS:          0  HIT %:        100  MISS %:          0   MPKI: 0
PSCL3 LOAD TRANSLATION ACCESS:        114  HIT:        114  MISS:          0  HIT %:        100  MISS %:          0   MPKI: 0
PSCL3 PREFETCH  REQUESTED:          0  ISSUED:          0  USEFUL:          0  USELESS:          0
PSCL3 USEFUL LOAD PREFETCHES:          0 PREFETCH ISSUED TO LOWER LEVEL:          0  ACCURACY: -nan
PSCL3 TIMELY PREFETCHES:          0 LATE PREFETCHES: 0 DROPPED PREFETCHES: 0
PSCL3 PREFETCHES SAME FILL-ORIGIN LEVEL: 0 DIFFERENT FILL-ORIGIN LEVEL: 0

PSCL2 TOTAL     ACCESS:        114  HIT:        114  MISS:          0  HIT %:        100  MISS %:          0   MPKI: 0
PSCL2 LOAD TRANSLATION ACCESS:        114  HIT:        114  MISS:          0  HIT %:        100  MISS %:          0   MPKI: 0
PSCL2 PREFETCH  REQUESTED:          0  ISSUED:          0  USEFUL:          0  USELESS:          0
PSCL2 USEFUL LOAD PREFETCHES:          0 PREFETCH ISSUED TO LOWER LEVEL:          0  ACCURACY: -nan
PSCL2 TIMELY PREFETCHES:          0 LATE PREFETCHES: 0 DROPPED PREFETCHES: 0
PSCL2 PREFETCHES SAME FILL-ORIGIN LEVEL: 0 DIFFERENT FILL-ORIGIN LEVEL: 0

LLC TOTAL     ACCESS:     129858  HIT:     122062  MISS:       7796  HIT %:    93.9965  MISS %:    6.00348   MPKI: 0.15592
LLC LOAD      ACCESS:       4143  HIT:       4121  MISS:         22  HIT %:     99.469  MISS %:   0.531016   MPKI: 0.00044
LLC RFO       ACCESS:       7371  HIT:         41  MISS:       7330  HIT %:   0.556234  MISS %:    99.4438   MPKI: 0.1466
LLC PREFETCH  ACCESS:     110798  HIT:     110368  MISS:        430  HIT %:    99.6119  MISS %:   0.388094   MPKI: 0.0086
AGUS PREFETCH L1 MISS: 0
LLC WRITEBACK ACCESS:       7480  HIT:       7480  MISS:          0  HIT %:        100  MISS %:          0   MPKI: 0
LLC LOAD TRANSLATION ACCESS:         66  HIT:         52  MISS:         14  HIT %:    78.7879  MISS %:    21.2121   MPKI: 0.00028
LLC PREFETCH  REQUESTED:          0  ISSUED:          0  USEFUL:        222  USELESS:          0
LLC USEFUL LOAD PREFETCHES:        222 PREFETCH ISSUED TO LOWER LEVEL:        430  ACCURACY: 51.6279
LLC TIMELY PREFETCHES:        222 LATE PREFETCHES: 0 DROPPED PREFETCHES: 0
LLC PREFETCHES SAME FILL-ORIGIN LEVEL: 0 DIFFERENT FILL-ORIGIN LEVEL: 0
LLC AVERAGE MISS LATENCY: 80.038 cycles
LLC RQ	ACCESS:      11581	FORWARD:          0	MERGED:          0	TO_CACHE:      11581
LLC WQ	ACCESS:       7480	FORWARD:          0	MERGED:          0	TO_CACHE:       7480
LLC PQ	ACCESS:     110798	FORWARD:          0	MERGED:          0	TO_CACHE:     110798

LLC Dense regions hint to LLC: 0

RAW hits: 598940
Loads Generated: 12625359
Loads sent to L1D: 12026416
Stores Generated: 5169829
Stores sent to L1D: 5169829
Major fault: 0 Minor fault: 468
Allocated PAGES: 468

stream: 
stream:times selected: 9603770
stream:pref_reqs: 55171882
stream:pref_reqs_filtered_out: 43335212
stream:pref_filled: 435017
stream:pref_useful: 247090
stream:pref_late: 384
stream:misses: 3309
stream:misses_by_poll: 0

CS: 
CS:times selected: 629717
CS:pref_reqs: 1881130
CS:pref_reqs_filtered_out: 1431036
CS:pref_filled: 4770
CS:pref_useful: 3483
CS:pref_late: 0
CS:misses: 136
CS:misses_by_poll: 1

CPLX: 
CPLX:times selected: 8959114
CPLX:pref_reqs: 12762898
CPLX:pref_reqs_filtered_out: 9360034
CPLX:pref_filled: 157335
CPLX:pref_useful: 62997
CPLX:pref_late: 39
CPLX:misses: 34322
CPLX:misses_by_poll: 749

ISB: 
ISB:total access:14326537
ISB:times selected:3725109
ISB:canary counter:0
ISB:pref_reqs: 8185018
ISB:pref_reqs_filtered_out: 4260980
ISB:pref_filled: 332887
ISB:pref_useful: 229959
ISB:pref_late: 58
ISB:misses: 4177
ISB:misses_by_poll: 666
ISB:Stream end: 2907653
ISB:No Prediction: 10601428 73.9985
ISB:No translation: 2957934222 20646.5
ISB:Predictions: 3281140 22.9025

NL_L1: 
NL:times selected: 20356
NL:pref_reqs: 20356
NL:pref_reqs_filtered_out: 11082
NL:pref_filled: 696
NL:pref_useful: 222
NL:pref_late: 1
NL:misses: 244
NL:misses_by_poll: 0

Coverage: 91.6798
total selections: 22938066
total_filled: 521908
total_useful: 291067
total_late: 563
total_polluted: 1416
total_misses_after_warmup: 27472
conflicts: 559657

test: 0
Prefetcher final stats
Training Unit Size: 19
Addr table size: 5547 5548
Stream divergence: 13784 0.0962131
Stream divergence -- new stream: 0
--------------------------Training unit table ------------------------

DRAM Statistics
 CHANNEL 0
 RQ ROW_BUFFER_HIT:       7019  ROW_BUFFER_MISS:        777
 DBUS_CONGESTED:          0
 WQ ROW_BUFFER_HIT:          0  ROW_BUFFER_MISS:          0  FULL:          0

 AVG_CONGESTED_CYCLE: -
 All warmup complete: 2
Channel 0 Bank busy for read cycles: 0
Channel 0 Bank busy for write cycles: 0
Channel 0
Rank 0
0banks busy for read cycles: 96044011
0banks busy for write cycles: 0
1banks busy for read cycles: 413272
1banks busy for write cycles: 0
2banks busy for read cycles: 22328
2banks busy for write cycles: 0
3banks busy for read cycles: 1865
3banks busy for write cycles: 0
4banks busy for read cycles: 284
4banks busy for write cycles: 0
5banks busy for read cycles: 245
5banks busy for write cycles: 0
6banks busy for read cycles: 271
6banks busy for write cycles: 0
7banks busy for read cycles: 0
7banks busy for write cycles: 0
8banks busy for read cycles: 0
8banks busy for write cycles: 0

CPU 0 Branch Prediction Accuracy: 90.9587% MPKI: 12.7456 Average ROB Occupancy at Mispredict: 39.2985
Branch types
NOT_BRANCH: 42951475 85.903%
BRANCH_DIRECT_JUMP: 384475 0.76895%
BRANCH_INDIRECT: 0 0%
BRANCH_CONDITIONAL: 6342934 12.6859%
BRANCH_DIRECT_CALL: 160565 0.32113%
BRANCH_INDIRECT_CALL: 0 0%
BRANCH_RETURN: 160565 0.32113%
BRANCH_OTHER: 0 0%

DRAM PAGES: 1048576
Allocated PAGES: 468
