
*** ChampSim Multicore Out-of-Order Simulator ***

Warmup Instructions: 50000000
Simulation Instructions: 50000000
Number of CPUs: 1
LLC sets: 2048
LLC ways: 16
Off-chip DRAM Size: 4096 MB Channels: 1 Width: 64-bit Data Rate: 6400 MT/s
CPU 0 runs ./traces/SPEC-CPU2017/644.nab_s-12459B.champsimtrace.xz
.xz
CPU 0 Bimodal branch predictor
BTB has LRU replacement policy
ITLB has LRU replacement policy
DTLB has LRU replacement policy
STLB has LRU replacement policy
L1I has LRU replacement policy
L1D has LRU replacement policy
L2C has LRU replacement policy
LLC has LRU replacement policy
Heartbeat CPU 0 instructions: 10000001 cycles: 3163719 heartbeat IPC: 3.16084 cumulative IPC: 3.16084 (Simulation time: 0 hr 0 min 52 sec) 
Heartbeat CPU 0 instructions: 20000000 cycles: 6332761 heartbeat IPC: 3.15553 cumulative IPC: 3.15818 (Simulation time: 0 hr 1 min 57 sec) 
Heartbeat CPU 0 instructions: 30000003 cycles: 9501929 heartbeat IPC: 3.1554 cumulative IPC: 3.15725 (Simulation time: 0 hr 2 min 53 sec) 
Heartbeat CPU 0 instructions: 40000000 cycles: 12668423 heartbeat IPC: 3.15807 cumulative IPC: 3.15746 (Simulation time: 0 hr 3 min 52 sec) 
Heartbeat CPU 0 instructions: 50000001 cycles: 15833296 heartbeat IPC: 3.15968 cumulative IPC: 3.1579 (Simulation time: 0 hr 4 min 52 sec) 

Warmup complete CPU 0 instructions: 50000001 cycles: 15833296 (Simulation time: 0 hr 4 min 52 sec) 

Heartbeat CPU 0 instructions: 60000000 cycles: 35051171 heartbeat IPC: 0.520349 cumulative IPC: 0.520349 (Simulation time: 0 hr 6 min 15 sec) 
Heartbeat CPU 0 instructions: 70000002 cycles: 54504264 heartbeat IPC: 0.514057 cumulative IPC: 0.517184 (Simulation time: 0 hr 7 min 27 sec) 
Heartbeat CPU 0 instructions: 80000000 cycles: 73836219 heartbeat IPC: 0.517278 cumulative IPC: 0.517215 (Simulation time: 0 hr 8 min 39 sec) 
Heartbeat CPU 0 instructions: 90000000 cycles: 93064667 heartbeat IPC: 0.520063 cumulative IPC: 0.517924 (Simulation time: 0 hr 9 min 44 sec) 
Heartbeat CPU 0 instructions: 100000000 cycles: 112631921 heartbeat IPC: 0.511058 cumulative IPC: 0.516536 (Simulation time: 0 hr 11 min 4 sec) 
Finished CPU 0 instructions: 50000000 cycles: 96798633 cumulative IPC: 0.516536 (Simulation time: 0 hr 11 min 4 sec) 

ChampSim completed all CPUs

Region of Interest Statistics

CPU 0 cumulative IPC: 0.516536 instructions: 50000000 cycles: 96798633
ITLB TOTAL     ACCESS:    7448516  HIT:    7448516  MISS:          0  HIT %:        100  MISS %:          0   MPKI: 0
ITLB LOAD TRANSLATION ACCESS:    7448516  HIT:    7448516  MISS:          0  HIT %:        100  MISS %:          0   MPKI: 0
ITLB PREFETCH  REQUESTED:          0  ISSUED:          0  USEFUL:          0  USELESS:          0
ITLB USEFUL LOAD PREFETCHES:          0 PREFETCH ISSUED TO LOWER LEVEL:          0  ACCURACY: -nan
ITLB TIMELY PREFETCHES:          0 LATE PREFETCHES: 0 DROPPED PREFETCHES: 0
ITLB PREFETCHES SAME FILL-ORIGIN LEVEL: 0 DIFFERENT FILL-ORIGIN LEVEL: 0
ITLB AVERAGE MISS LATENCY: -nan cycles
ITLB RQ	ACCESS:    8393609	FORWARD:          0	MERGED:     945094	TO_CACHE:    7448515

DTLB TOTAL     ACCESS:   10689797  HIT:   10677086  MISS:      12711  HIT %:    99.8811  MISS %:   0.118908   MPKI: 0.25422
DTLB LOAD TRANSLATION ACCESS:   10689797  HIT:   10677086  MISS:      12711  HIT %:    99.8811  MISS %:   0.118908   MPKI: 0.25422
DTLB PREFETCH  REQUESTED:          0  ISSUED:          0  USEFUL:          0  USELESS:          0
DTLB USEFUL LOAD PREFETCHES:          0 PREFETCH ISSUED TO LOWER LEVEL:          0  ACCURACY: -nan
DTLB TIMELY PREFETCHES:          0 LATE PREFETCHES: 0 DROPPED PREFETCHES: 0
DTLB PREFETCHES SAME FILL-ORIGIN LEVEL: 0 DIFFERENT FILL-ORIGIN LEVEL: 0
DTLB AVERAGE MISS LATENCY: 10.3684 cycles
DTLB RQ	ACCESS:   12809995	FORWARD:          0	MERGED:    2119671	TO_CACHE:   10690324

STLB TOTAL     ACCESS:     145254  HIT:     145140  MISS:        114  HIT %:    99.9215  MISS %:  0.0784832   MPKI: 0.00228
STLB LOAD TRANSLATION ACCESS:      12711  HIT:      12597  MISS:        114  HIT %:    99.1031  MISS %:   0.896861   MPKI: 0.00228
STLB TRANSLATION FROM L1D PREFETCHER ACCESS:     132543  HIT:     132543  MISS:          0  HIT %:        100  MISS %:          0   MPKI: 0
STLB PREFETCH  REQUESTED:          0  ISSUED:          0  USEFUL:          0  USELESS:          0
STLB USEFUL LOAD PREFETCHES:          0 PREFETCH ISSUED TO LOWER LEVEL:          0  ACCURACY: -nan
STLB TIMELY PREFETCHES:          0 LATE PREFETCHES: 0 DROPPED PREFETCHES: 0
STLB PREFETCHES SAME FILL-ORIGIN LEVEL: 0 DIFFERENT FILL-ORIGIN LEVEL: 0
STLB AVERAGE MISS LATENCY: 145.877 cycles
STLB RQ	ACCESS:     465592	FORWARD:          0	MERGED:     320338	TO_CACHE:     145254

STLB Hit, L1D data hit: 0
STLB Hit, L2C data hit: 0
STLB Hit, LLC data hit: 0
STLB Hit, LLC data miss: 0
STLB STLB hints to L2: 0
L1D TOTAL     ACCESS:   13154950  HIT:   12722609  MISS:     432341  HIT %:    96.7135  MISS %:    3.28653   MPKI: 8.64682
L1D LOAD      ACCESS:    7637792  HIT:    7538318  MISS:      99474  HIT %:    98.6976  MISS %:    1.30239   MPKI: 1.98948
L1D RFO       ACCESS:    5066251  HIT:    5050046  MISS:      16205  HIT %:    99.6801  MISS %:   0.319862   MPKI: 0.3241
L1D PREFETCH  ACCESS:     450907  HIT:     134245  MISS:     316662  HIT %:    29.7722  MISS %:    70.2278   MPKI: 6.33324
AGUS PREFETCH L1 MISS: 0
L1D PREFETCH  REQUESTED:     926684  ISSUED:     905781  USEFUL:     216431  USELESS:     100187
L1D USEFUL LOAD PREFETCHES:     216431 PREFETCH ISSUED TO LOWER LEVEL:     317024  ACCURACY: 68.2696
L1D TIMELY PREFETCHES:     216431 LATE PREFETCHES: 362 DROPPED PREFETCHES: 0
L1D PREFETCHES SAME FILL-ORIGIN LEVEL: 317024 DIFFERENT FILL-ORIGIN LEVEL: 0
L1D AVERAGE MISS LATENCY: 20.4042 cycles
L1D RQ	ACCESS:   12029094	FORWARD:          0	MERGED:    4382356	TO_CACHE:    7641281
L1D WQ	ACCESS:    5169829	FORWARD:       5476	MERGED:       1115	TO_CACHE:    5168714
L1D PQ	ACCESS:     452900	FORWARD:          0	MERGED:          0	TO_CACHE:     452881

L1D UNIQUE REGIONS ACCESSED: 0
L1D REGIONS CONFLICTS: 0
L1D Cross Page Prefetch Requests: 102876
L1D Same Page Prefetch Requests: 759694
L1D ROI Sum of L1D PQ occupancy: 6390047
L1D PREFETCHES PUSHED FROM L2C: 0
L1I TOTAL     ACCESS:    8393609  HIT:    8393609  MISS:          0  HIT %:        100  MISS %:          0   MPKI: 0
L1I LOAD      ACCESS:    8393609  HIT:    8393609  MISS:          0  HIT %:        100  MISS %:          0   MPKI: 0
L1I PREFETCH  REQUESTED:          0  ISSUED:          0  USEFUL:          0  USELESS:          0
L1I USEFUL LOAD PREFETCHES:          0 PREFETCH ISSUED TO LOWER LEVEL:          0  ACCURACY: -nan
L1I TIMELY PREFETCHES:          0 LATE PREFETCHES: 0 DROPPED PREFETCHES: 0
L1I PREFETCHES SAME FILL-ORIGIN LEVEL: 0 DIFFERENT FILL-ORIGIN LEVEL: 0
L1I AVERAGE MISS LATENCY: -nan cycles
L1I RQ	ACCESS:   11984316	FORWARD:          0	MERGED:    3590707	TO_CACHE:    8393609

BTB TOTAL     ACCESS:    7002804  HIT:    7002468  MISS:        336  HIT %:    99.9952  MISS %: 0.00479808   MPKI: 0.00672
BTB BRANCH_DIRECT_JUMP	ACCESS:     384475  HIT:     384464  MISS:         11
BTB BRANCH_INDIRECT	ACCESS:          0  HIT:          0  MISS:          0
BTB BRANCH_CONDITIONAL	ACCESS:    6297199  HIT:    6297152  MISS:         47
BTB BRANCH_DIRECT_CALL	ACCESS:     160565  HIT:     160558  MISS:          7
BTB BRANCH_INDIRECT_CALL	ACCESS:          0  HIT:          0  MISS:          0
BTB BRANCH_RETURN	ACCESS:     160565  HIT:     160294  MISS:        271
BTB BRANCH_OTHER ACCESS:          0  HIT:          0  MISS:          0

L2C TOTAL     ACCESS:     457797  HIT:     413622  MISS:      44175  HIT %:    90.3505  MISS %:    9.64947   MPKI: 0.8835
L2C LOAD      ACCESS:      99112  HIT:      91734  MISS:       7378  HIT %:    92.5559  MISS %:     7.4441   MPKI: 0.14756
L2C DATA LOAD MPKI: 0.14756
L2C INSTRUCTION LOAD MPKI: 0
L2C RFO       ACCESS:      16205  HIT:       8798  MISS:       7407  HIT %:    54.2919  MISS %:    45.7081   MPKI: 0.14814
L2C PREFETCH  ACCESS:     317024  HIT:     287690  MISS:      29334  HIT %:    90.7471  MISS %:    9.25293   MPKI: 0.58668
AGUS PREFETCH L1 MISS: 0
L2C DATA PREFETCH MPKI: 0.58668
L2C INSTRUCTION PREFETCH MPKI: 0
L2C WRITEBACK ACCESS:      25342  HIT:      25329  MISS:         13  HIT %:    99.9487  MISS %:  0.0512982   MPKI: 0.00026
L2C LOAD TRANSLATION ACCESS:        114  HIT:         71  MISS:         43  HIT %:    62.2807  MISS %:    37.7193   MPKI: 0.00086
L2C PREFETCH  REQUESTED:          0  ISSUED:          0  USEFUL:       4122  USELESS:      25695
L2C USEFUL LOAD PREFETCHES:       4122 PREFETCH ISSUED TO LOWER LEVEL:      29334  ACCURACY: 14.052
L2C TIMELY PREFETCHES:       4122 LATE PREFETCHES: 0 DROPPED PREFETCHES: 0
L2C PREFETCHES SAME FILL-ORIGIN LEVEL: 0 DIFFERENT FILL-ORIGIN LEVEL: 0
L2C AVERAGE MISS LATENCY: 44.5662 cycles
L2C RQ	ACCESS:     115432	FORWARD:          0	MERGED:          0	TO_CACHE:     115432
L2C WQ	ACCESS:      25342	FORWARD:          0	MERGED:          0	TO_CACHE:      25342
L2C PQ	ACCESS:     317024	FORWARD:          0	MERGED:          0	TO_CACHE:     317024

L2C Instructions Evicting Data 0
L2C Translations Evicting Data 43
L2C Data Evicting Data 44075
L2C Instructions Evicting Instructions 0
L2C Translations Evicting Instructions 0
L2C Data Evicting Instructions 0
L2C Instructions Evicting Translations 0
L2C Translations Evicting Translations 0
L2C Data Evicting Translations 44
L2C Dense regions hint from L2: 0
PSCL5 TOTAL     ACCESS:        114  HIT:        114  MISS:          0  HIT %:        100  MISS %:          0   MPKI: 0
PSCL5 LOAD TRANSLATION ACCESS:        114  HIT:        114  MISS:          0  HIT %:        100  MISS %:          0   MPKI: 0
PSCL5 PREFETCH  REQUESTED:          0  ISSUED:          0  USEFUL:          0  USELESS:          0
PSCL5 USEFUL LOAD PREFETCHES:          0 PREFETCH ISSUED TO LOWER LEVEL:          0  ACCURACY: -nan
PSCL5 TIMELY PREFETCHES:          0 LATE PREFETCHES: 0 DROPPED PREFETCHES: 0
PSCL5 PREFETCHES SAME FILL-ORIGIN LEVEL: 0 DIFFERENT FILL-ORIGIN LEVEL: 0

PSCL4 TOTAL     ACCESS:        114  HIT:        114  MISS:          0  HIT %:        100  MISS %:          0   MPKI: 0
PSCL4 LOAD TRANSLATION ACCESS:        114  HIT:        114  MISS:          0  HIT %:        100  MISS %:          0   MPKI: 0
PSCL4 PREFETCH  REQUESTED:          0  ISSUED:          0  USEFUL:          0  USELESS:          0
PSCL4 USEFUL LOAD PREFETCHES:          0 PREFETCH ISSUED TO LOWER LEVEL:          0  ACCURACY: -nan
PSCL4 TIMELY PREFETCHES:          0 LATE PREFETCHES: 0 DROPPED PREFETCHES: 0
PSCL4 PREFETCHES SAME FILL-ORIGIN LEVEL: 0 DIFFERENT FILL-ORIGIN LEVEL: 0

PSCL3 TOTAL     ACCESS:        114  HIT:        114  MISS:          0  HIT %:        100  MISS %:          0   MPKI: 0
PSCL3 LOAD TRANSLATION ACCESS:        114  HIT:        114  MISS:          0  HIT %:        100  MISS %:          0   MPKI: 0
PSCL3 PREFETCH  REQUESTED:          0  ISSUED:          0  USEFUL:          0  USELESS:          0
PSCL3 USEFUL LOAD PREFETCHES:          0 PREFETCH ISSUED TO LOWER LEVEL:          0  ACCURACY: -nan
PSCL3 TIMELY PREFETCHES:          0 LATE PREFETCHES: 0 DROPPED PREFETCHES: 0
PSCL3 PREFETCHES SAME FILL-ORIGIN LEVEL: 0 DIFFERENT FILL-ORIGIN LEVEL: 0

PSCL2 TOTAL     ACCESS:        114  HIT:        114  MISS:          0  HIT %:        100  MISS %:          0   MPKI: 0
PSCL2 LOAD TRANSLATION ACCESS:        114  HIT:        114  MISS:          0  HIT %:        100  MISS %:          0   MPKI: 0
PSCL2 PREFETCH  REQUESTED:          0  ISSUED:          0  USEFUL:          0  USELESS:          0
PSCL2 USEFUL LOAD PREFETCHES:          0 PREFETCH ISSUED TO LOWER LEVEL:          0  ACCURACY: -nan
PSCL2 TIMELY PREFETCHES:          0 LATE PREFETCHES: 0 DROPPED PREFETCHES: 0
PSCL2 PREFETCHES SAME FILL-ORIGIN LEVEL: 0 DIFFERENT FILL-ORIGIN LEVEL: 0

LLC TOTAL     ACCESS:      51173  HIT:      43273  MISS:       7900  HIT %:    84.5622  MISS %:    15.4378   MPKI: 0.158
LLC LOAD      ACCESS:       7378  HIT:       7338  MISS:         40  HIT %:    99.4578  MISS %:   0.542152   MPKI: 0.0008
LLC RFO       ACCESS:       7407  HIT:         29  MISS:       7378  HIT %:   0.391522  MISS %:    99.6085   MPKI: 0.14756
LLC PREFETCH  ACCESS:      29334  HIT:      28866  MISS:        468  HIT %:    98.4046  MISS %:    1.59542   MPKI: 0.00936
AGUS PREFETCH L1 MISS: 0
LLC WRITEBACK ACCESS:       7011  HIT:       7011  MISS:          0  HIT %:        100  MISS %:          0   MPKI: 0
LLC LOAD TRANSLATION ACCESS:         43  HIT:         29  MISS:         14  HIT %:    67.4419  MISS %:    32.5581   MPKI: 0.00028
LLC PREFETCH  REQUESTED:          0  ISSUED:          0  USEFUL:        289  USELESS:          0
LLC USEFUL LOAD PREFETCHES:        289 PREFETCH ISSUED TO LOWER LEVEL:        468  ACCURACY: 61.7521
LLC TIMELY PREFETCHES:        289 LATE PREFETCHES: 0 DROPPED PREFETCHES: 0
LLC PREFETCHES SAME FILL-ORIGIN LEVEL: 0 DIFFERENT FILL-ORIGIN LEVEL: 0
LLC AVERAGE MISS LATENCY: 81.4814 cycles
LLC RQ	ACCESS:      14829	FORWARD:          0	MERGED:          0	TO_CACHE:      14829
LLC WQ	ACCESS:       7011	FORWARD:          0	MERGED:          0	TO_CACHE:       7011
LLC PQ	ACCESS:      29334	FORWARD:          0	MERGED:          0	TO_CACHE:      29334

LLC Dense regions hint to LLC: 0

RAW hits: 596262
Loads Generated: 12625359
Loads sent to L1D: 12029094
Stores Generated: 5169829
Stores sent to L1D: 5169829
Major fault: 0 Minor fault: 468
Allocated PAGES: 468

stream: 
stream:times selected: 188436
stream:pref_filled: 437147
stream:pref_useful: 277977
stream:pref_late: 667
stream:misses: 37283
stream:misses_by_poll: 0

CS: 
CS:times selected: 482
CS:pref_filled: 725
CS:pref_useful: 576
CS:pref_late: 0
CS:misses: 603
CS:misses_by_poll: 0

CPLX: 
CPLX:times selected: 186831
CPLX:pref_filled: 3457
CPLX:pref_useful: 1749
CPLX:pref_late: 0
CPLX:misses: 154663
CPLX:misses_by_poll: 0

NL_L1: 
NL:times selected: 1482
NL:pref_filled: 898
NL:pref_useful: 599
NL:pref_late: 0
NL:misses: 1529
NL:misses_by_poll: 0

Coverage: 68.5114
total selections: 377231
total_filled: 316662
total_useful: 216431
total_late: 894
total_polluted: 0
total_misses_after_warmup: 102963
conflicts: 331

test: 77869
ISB Prefetcher final stats
Training Unit Size: 23
Addr table size: 6864 6864


Triggers: 188440
No Prediction: 22733 12.0638
Stream end: 153401
No translation: 155964001 82765.9
Predictions: 169387 89.8891


Stream divergence: 50040 26.5549
Stream divergence -- new stream: 0

DRAM Statistics
 CHANNEL 0
 RQ ROW_BUFFER_HIT:       7018  ROW_BUFFER_MISS:        882
 DBUS_CONGESTED:          0
 WQ ROW_BUFFER_HIT:          0  ROW_BUFFER_MISS:          0  FULL:          0

 AVG_CONGESTED_CYCLE: -
 All warmup complete: 2
Channel 0 Bank busy for read cycles: 0
Channel 0 Bank busy for write cycles: 0
Channel 0
Rank 0
0banks busy for read cycles: 96362008
0banks busy for write cycles: 0
1banks busy for read cycles: 407837
1banks busy for write cycles: 0
2banks busy for read cycles: 20557
2banks busy for write cycles: 0
3banks busy for read cycles: 3900
3banks busy for write cycles: 0
4banks busy for read cycles: 1580
4banks busy for write cycles: 0
5banks busy for read cycles: 1128
5banks busy for write cycles: 0
6banks busy for read cycles: 1104
6banks busy for write cycles: 0
7banks busy for read cycles: 184
7banks busy for write cycles: 0
8banks busy for read cycles: 336
8banks busy for write cycles: 0

CPU 0 Branch Prediction Accuracy: 90.9587% MPKI: 12.7456 Average ROB Occupancy at Mispredict: 39.2011
Branch types
NOT_BRANCH: 42951475 85.903%
BRANCH_DIRECT_JUMP: 384475 0.76895%
BRANCH_INDIRECT: 0 0%
BRANCH_CONDITIONAL: 6342934 12.6859%
BRANCH_DIRECT_CALL: 160565 0.32113%
BRANCH_INDIRECT_CALL: 0 0%
BRANCH_RETURN: 160565 0.32113%
BRANCH_OTHER: 0 0%

DRAM PAGES: 1048576
Allocated PAGES: 468
