
*** ChampSim Multicore Out-of-Order Simulator ***

Warmup Instructions: 50000000
Simulation Instructions: 50000000
Number of CPUs: 1
LLC sets: 2048
LLC ways: 16
Off-chip DRAM Size: 4096 MB Channels: 1 Width: 64-bit Data Rate: 6400 MT/s
CPU 0 runs ./traces/SPEC-CPU2017/644.nab_s-12459B.champsimtrace.xz
.xz
CPU 0 Bimodal branch predictor
BTB has LRU replacement policy
ITLB has LRU replacement policy
DTLB has LRU replacement policy
STLB has LRU replacement policy
L1I has LRU replacement policy
L1D has LRU replacement policy
L2C has LRU replacement policy
LLC has LRU replacement policy
Heartbeat CPU 0 instructions: 10000001 cycles: 3163463 heartbeat IPC: 3.16109 cumulative IPC: 3.16109 (Simulation time: 0 hr 7 min 17 sec) 
Heartbeat CPU 0 instructions: 20000000 cycles: 6332521 heartbeat IPC: 3.15551 cumulative IPC: 3.1583 (Simulation time: 0 hr 17 min 1 sec) 
Heartbeat CPU 0 instructions: 30000003 cycles: 9501576 heartbeat IPC: 3.15552 cumulative IPC: 3.15737 (Simulation time: 0 hr 27 min 2 sec) 
Heartbeat CPU 0 instructions: 40000000 cycles: 12668020 heartbeat IPC: 3.15812 cumulative IPC: 3.15756 (Simulation time: 0 hr 36 min 27 sec) 
Heartbeat CPU 0 instructions: 50000001 cycles: 15832696 heartbeat IPC: 3.15988 cumulative IPC: 3.15802 (Simulation time: 0 hr 45 min 46 sec) 

Warmup complete CPU 0 instructions: 50000001 cycles: 15832696 (Simulation time: 0 hr 45 min 46 sec) 

Heartbeat CPU 0 instructions: 60000000 cycles: 35027204 heartbeat IPC: 0.520982 cumulative IPC: 0.520982 (Simulation time: 0 hr 47 min 43 sec) 
Heartbeat CPU 0 instructions: 70000002 cycles: 54460829 heartbeat IPC: 0.514572 cumulative IPC: 0.517757 (Simulation time: 0 hr 49 min 42 sec) 
Heartbeat CPU 0 instructions: 80000000 cycles: 73772092 heartbeat IPC: 0.517832 cumulative IPC: 0.517782 (Simulation time: 0 hr 51 min 47 sec) 
Heartbeat CPU 0 instructions: 90000000 cycles: 92975477 heartbeat IPC: 0.520742 cumulative IPC: 0.518519 (Simulation time: 0 hr 53 min 50 sec) 
Heartbeat CPU 0 instructions: 100000000 cycles: 112509727 heartbeat IPC: 0.511921 cumulative IPC: 0.517186 (Simulation time: 0 hr 55 min 41 sec) 
Finished CPU 0 instructions: 50000000 cycles: 96677039 cumulative IPC: 0.517186 (Simulation time: 0 hr 55 min 41 sec) 

ChampSim completed all CPUs

Region of Interest Statistics

CPU 0 cumulative IPC: 0.517186 instructions: 50000000 cycles: 96677039
ITLB TOTAL     ACCESS:    7448515  HIT:    7448515  MISS:          0  HIT %:        100  MISS %:          0   MPKI: 0
ITLB LOAD TRANSLATION ACCESS:    7448515  HIT:    7448515  MISS:          0  HIT %:        100  MISS %:          0   MPKI: 0
ITLB PREFETCH  REQUESTED:          0  ISSUED:          0  USEFUL:          0  USELESS:          0
ITLB USEFUL LOAD PREFETCHES:          0 PREFETCH ISSUED TO LOWER LEVEL:          0  ACCURACY: -nan
ITLB TIMELY PREFETCHES:          0 LATE PREFETCHES: 0 DROPPED PREFETCHES: 0
ITLB PREFETCHES SAME FILL-ORIGIN LEVEL: 0 DIFFERENT FILL-ORIGIN LEVEL: 0
ITLB AVERAGE MISS LATENCY: -nan cycles
ITLB RQ	ACCESS:    8393607	FORWARD:          0	MERGED:     945093	TO_CACHE:    7448514

DTLB TOTAL     ACCESS:   10691836  HIT:   10679125  MISS:      12711  HIT %:    99.8811  MISS %:   0.118885   MPKI: 0.25422
DTLB LOAD TRANSLATION ACCESS:   10691836  HIT:   10679125  MISS:      12711  HIT %:    99.8811  MISS %:   0.118885   MPKI: 0.25422
DTLB PREFETCH  REQUESTED:          0  ISSUED:          0  USEFUL:          0  USELESS:          0
DTLB USEFUL LOAD PREFETCHES:          0 PREFETCH ISSUED TO LOWER LEVEL:          0  ACCURACY: -nan
DTLB TIMELY PREFETCHES:          0 LATE PREFETCHES: 0 DROPPED PREFETCHES: 0
DTLB PREFETCHES SAME FILL-ORIGIN LEVEL: 0 DIFFERENT FILL-ORIGIN LEVEL: 0
DTLB AVERAGE MISS LATENCY: 10.4003 cycles
DTLB RQ	ACCESS:   12810564	FORWARD:          0	MERGED:    2118211	TO_CACHE:   10692353

STLB TOTAL     ACCESS:    2095598  HIT:    2095484  MISS:        114  HIT %:    99.9946  MISS %: 0.00543997   MPKI: 0.00228
STLB LOAD TRANSLATION ACCESS:      12711  HIT:      12597  MISS:        114  HIT %:    99.1031  MISS %:   0.896861   MPKI: 0.00228
STLB TRANSLATION FROM L1D PREFETCHER ACCESS:    2082887  HIT:    2082887  MISS:          0  HIT %:        100  MISS %:          0   MPKI: 0
STLB PREFETCH  REQUESTED:          0  ISSUED:          0  USEFUL:          0  USELESS:          0
STLB USEFUL LOAD PREFETCHES:          0 PREFETCH ISSUED TO LOWER LEVEL:          0  ACCURACY: -nan
STLB TIMELY PREFETCHES:          0 LATE PREFETCHES: 0 DROPPED PREFETCHES: 0
STLB PREFETCHES SAME FILL-ORIGIN LEVEL: 0 DIFFERENT FILL-ORIGIN LEVEL: 0
STLB AVERAGE MISS LATENCY: 152.184 cycles
STLB RQ	ACCESS:    6042716	FORWARD:          0	MERGED:    3947118	TO_CACHE:    2095598

STLB Hit, L1D data hit: 0
STLB Hit, L2C data hit: 0
STLB Hit, LLC data hit: 0
STLB Hit, LLC data miss: 0
STLB STLB hints to L2: 0
L1D TOTAL     ACCESS:   18733481  HIT:   18204532  MISS:     528949  HIT %:    97.1765  MISS %:    2.82355   MPKI: 10.579
L1D LOAD      ACCESS:    7640153  HIT:    7571393  MISS:      68760  HIT %:       99.1  MISS %:   0.899982   MPKI: 1.3752
L1D RFO       ACCESS:    5068271  HIT:    5053379  MISS:      14892  HIT %:    99.7062  MISS %:   0.293828   MPKI: 0.29784
L1D PREFETCH  ACCESS:    6025057  HIT:    5579760  MISS:     445297  HIT %:    92.6092  MISS %:    7.39075   MPKI: 8.90594
AGUS PREFETCH L1 MISS: 0
L1D PREFETCH  REQUESTED:   12362864  ISSUED:   12061973  USEFUL:     247323  USELESS:     197923
L1D USEFUL LOAD PREFETCHES:     247323 PREFETCH ISSUED TO LOWER LEVEL:     446016  ACCURACY: 55.4516
L1D TIMELY PREFETCHES:     247323 LATE PREFETCHES: 719 DROPPED PREFETCHES: 0
L1D PREFETCHES SAME FILL-ORIGIN LEVEL: 446016 DIFFERENT FILL-ORIGIN LEVEL: 0
L1D AVERAGE MISS LATENCY: 23.453 cycles
L1D RQ	ACCESS:   12029940	FORWARD:          0	MERGED:    4382647	TO_CACHE:    7641850
L1D WQ	ACCESS:    5169829	FORWARD:       7406	MERGED:       1115	TO_CACHE:    5168714
L1D PQ	ACCESS:    6031968	FORWARD:          0	MERGED:          0	TO_CACHE:    6030005

L1D UNIQUE REGIONS ACCESSED: 0
L1D REGIONS CONFLICTS: 0
L1D Cross Page Prefetch Requests: 0
L1D Same Page Prefetch Requests: 12035023
L1D ROI Sum of L1D PQ occupancy: 81679505
L1D PREFETCHES PUSHED FROM L2C: 0
L1I TOTAL     ACCESS:    8393607  HIT:    8393607  MISS:          0  HIT %:        100  MISS %:          0   MPKI: 0
L1I LOAD      ACCESS:    8393607  HIT:    8393607  MISS:          0  HIT %:        100  MISS %:          0   MPKI: 0
L1I PREFETCH  REQUESTED:          0  ISSUED:          0  USEFUL:          0  USELESS:          0
L1I USEFUL LOAD PREFETCHES:          0 PREFETCH ISSUED TO LOWER LEVEL:          0  ACCURACY: -nan
L1I TIMELY PREFETCHES:          0 LATE PREFETCHES: 0 DROPPED PREFETCHES: 0
L1I PREFETCHES SAME FILL-ORIGIN LEVEL: 0 DIFFERENT FILL-ORIGIN LEVEL: 0
L1I AVERAGE MISS LATENCY: -nan cycles
L1I RQ	ACCESS:   11984315	FORWARD:          0	MERGED:    3590708	TO_CACHE:    8393607

BTB TOTAL     ACCESS:    7002804  HIT:    7002468  MISS:        336  HIT %:    99.9952  MISS %: 0.00479808   MPKI: 0.00672
BTB BRANCH_DIRECT_JUMP	ACCESS:     384475  HIT:     384464  MISS:         11
BTB BRANCH_INDIRECT	ACCESS:          0  HIT:          0  MISS:          0
BTB BRANCH_CONDITIONAL	ACCESS:    6297199  HIT:    6297152  MISS:         47
BTB BRANCH_DIRECT_CALL	ACCESS:     160565  HIT:     160558  MISS:          7
BTB BRANCH_INDIRECT_CALL	ACCESS:          0  HIT:          0  MISS:          0
BTB BRANCH_RETURN	ACCESS:     160565  HIT:     160294  MISS:        271
BTB BRANCH_OTHER ACCESS:          0  HIT:          0  MISS:          0

L2C TOTAL     ACCESS:     552466  HIT:     436750  MISS:     115716  HIT %:    79.0546  MISS %:    20.9454   MPKI: 2.31432
L2C LOAD      ACCESS:      68041  HIT:      55291  MISS:      12750  HIT %:    81.2613  MISS %:    18.7387   MPKI: 0.255
L2C DATA LOAD MPKI: 0.255
L2C INSTRUCTION LOAD MPKI: 0
L2C RFO       ACCESS:      14892  HIT:       7502  MISS:       7390  HIT %:     50.376  MISS %:     49.624   MPKI: 0.1478
L2C PREFETCH  ACCESS:     446016  HIT:     350570  MISS:      95446  HIT %:    78.6003  MISS %:    21.3997   MPKI: 1.90892
AGUS PREFETCH L1 MISS: 0
L2C DATA PREFETCH MPKI: 1.90892
L2C INSTRUCTION PREFETCH MPKI: 0
L2C WRITEBACK ACCESS:      23403  HIT:      23336  MISS:         67  HIT %:    99.7137  MISS %:   0.286288   MPKI: 0.00134
L2C LOAD TRANSLATION ACCESS:        114  HIT:         51  MISS:         63  HIT %:    44.7368  MISS %:    55.2632   MPKI: 0.00126
L2C PREFETCH  REQUESTED:          0  ISSUED:          0  USEFUL:       2965  USELESS:      92312
L2C USEFUL LOAD PREFETCHES:       2965 PREFETCH ISSUED TO LOWER LEVEL:      95446  ACCURACY: 3.10647
L2C TIMELY PREFETCHES:       2965 LATE PREFETCHES: 0 DROPPED PREFETCHES: 0
L2C PREFETCHES SAME FILL-ORIGIN LEVEL: 0 DIFFERENT FILL-ORIGIN LEVEL: 0
L2C AVERAGE MISS LATENCY: 35.3913 cycles
L2C RQ	ACCESS:      83048	FORWARD:          0	MERGED:          0	TO_CACHE:      83048
L2C WQ	ACCESS:      23403	FORWARD:          0	MERGED:          0	TO_CACHE:      23403
L2C PQ	ACCESS:     446016	FORWARD:          0	MERGED:          0	TO_CACHE:     446016

L2C Instructions Evicting Data 0
L2C Translations Evicting Data 63
L2C Data Evicting Data 115523
L2C Instructions Evicting Instructions 0
L2C Translations Evicting Instructions 0
L2C Data Evicting Instructions 0
L2C Instructions Evicting Translations 0
L2C Translations Evicting Translations 0
L2C Data Evicting Translations 63
L2C Dense regions hint from L2: 0
PSCL5 TOTAL     ACCESS:        114  HIT:        114  MISS:          0  HIT %:        100  MISS %:          0   MPKI: 0
PSCL5 LOAD TRANSLATION ACCESS:        114  HIT:        114  MISS:          0  HIT %:        100  MISS %:          0   MPKI: 0
PSCL5 PREFETCH  REQUESTED:          0  ISSUED:          0  USEFUL:          0  USELESS:          0
PSCL5 USEFUL LOAD PREFETCHES:          0 PREFETCH ISSUED TO LOWER LEVEL:          0  ACCURACY: -nan
PSCL5 TIMELY PREFETCHES:          0 LATE PREFETCHES: 0 DROPPED PREFETCHES: 0
PSCL5 PREFETCHES SAME FILL-ORIGIN LEVEL: 0 DIFFERENT FILL-ORIGIN LEVEL: 0

PSCL4 TOTAL     ACCESS:        114  HIT:        114  MISS:          0  HIT %:        100  MISS %:          0   MPKI: 0
PSCL4 LOAD TRANSLATION ACCESS:        114  HIT:        114  MISS:          0  HIT %:        100  MISS %:          0   MPKI: 0
PSCL4 PREFETCH  REQUESTED:          0  ISSUED:          0  USEFUL:          0  USELESS:          0
PSCL4 USEFUL LOAD PREFETCHES:          0 PREFETCH ISSUED TO LOWER LEVEL:          0  ACCURACY: -nan
PSCL4 TIMELY PREFETCHES:          0 LATE PREFETCHES: 0 DROPPED PREFETCHES: 0
PSCL4 PREFETCHES SAME FILL-ORIGIN LEVEL: 0 DIFFERENT FILL-ORIGIN LEVEL: 0

PSCL3 TOTAL     ACCESS:        114  HIT:        114  MISS:          0  HIT %:        100  MISS %:          0   MPKI: 0
PSCL3 LOAD TRANSLATION ACCESS:        114  HIT:        114  MISS:          0  HIT %:        100  MISS %:          0   MPKI: 0
PSCL3 PREFETCH  REQUESTED:          0  ISSUED:          0  USEFUL:          0  USELESS:          0
PSCL3 USEFUL LOAD PREFETCHES:          0 PREFETCH ISSUED TO LOWER LEVEL:          0  ACCURACY: -nan
PSCL3 TIMELY PREFETCHES:          0 LATE PREFETCHES: 0 DROPPED PREFETCHES: 0
PSCL3 PREFETCHES SAME FILL-ORIGIN LEVEL: 0 DIFFERENT FILL-ORIGIN LEVEL: 0

PSCL2 TOTAL     ACCESS:        114  HIT:        114  MISS:          0  HIT %:        100  MISS %:          0   MPKI: 0
PSCL2 LOAD TRANSLATION ACCESS:        114  HIT:        114  MISS:          0  HIT %:        100  MISS %:          0   MPKI: 0
PSCL2 PREFETCH  REQUESTED:          0  ISSUED:          0  USEFUL:          0  USELESS:          0
PSCL2 USEFUL LOAD PREFETCHES:          0 PREFETCH ISSUED TO LOWER LEVEL:          0  ACCURACY: -nan
PSCL2 TIMELY PREFETCHES:          0 LATE PREFETCHES: 0 DROPPED PREFETCHES: 0
PSCL2 PREFETCHES SAME FILL-ORIGIN LEVEL: 0 DIFFERENT FILL-ORIGIN LEVEL: 0

LLC TOTAL     ACCESS:     123283  HIT:     115504  MISS:       7779  HIT %:    93.6901  MISS %:    6.30987   MPKI: 0.15558
LLC LOAD      ACCESS:      12750  HIT:      12732  MISS:         18  HIT %:    99.8588  MISS %:   0.141176   MPKI: 0.00036
LLC RFO       ACCESS:       7390  HIT:         55  MISS:       7335  HIT %:   0.744249  MISS %:    99.2558   MPKI: 0.1467
LLC PREFETCH  ACCESS:      95446  HIT:      95034  MISS:        412  HIT %:    99.5683  MISS %:   0.431658   MPKI: 0.00824
AGUS PREFETCH L1 MISS: 0
LLC WRITEBACK ACCESS:       7634  HIT:       7634  MISS:          0  HIT %:        100  MISS %:          0   MPKI: 0
LLC LOAD TRANSLATION ACCESS:         63  HIT:         49  MISS:         14  HIT %:    77.7778  MISS %:    22.2222   MPKI: 0.00028
LLC PREFETCH  REQUESTED:          0  ISSUED:          0  USEFUL:        189  USELESS:          0
LLC USEFUL LOAD PREFETCHES:        189 PREFETCH ISSUED TO LOWER LEVEL:        412  ACCURACY: 45.8738
LLC TIMELY PREFETCHES:        189 LATE PREFETCHES: 0 DROPPED PREFETCHES: 0
LLC PREFETCHES SAME FILL-ORIGIN LEVEL: 0 DIFFERENT FILL-ORIGIN LEVEL: 0
LLC AVERAGE MISS LATENCY: 80.1262 cycles
LLC RQ	ACCESS:      20204	FORWARD:          0	MERGED:          0	TO_CACHE:      20204
LLC WQ	ACCESS:       7634	FORWARD:          0	MERGED:          0	TO_CACHE:       7634
LLC PQ	ACCESS:      95446	FORWARD:          0	MERGED:          0	TO_CACHE:      95446

LLC Dense regions hint to LLC: 0

RAW hits: 595416
Loads Generated: 12625359
Loads sent to L1D: 12029940
Stores Generated: 5169829
Stores sent to L1D: 5169829
Major fault: 0 Minor fault: 468
Allocated PAGES: 468

stream: 
stream:times selected: 9604635
stream:pref_filled: 588850
stream:pref_useful: 357912
stream:pref_late: 1303
stream:misses: 10556
stream:misses_by_poll: 0

CS: 
CS:times selected: 576771
CS:pref_filled: 4095
CS:pref_useful: 3040
CS:pref_late: 0
CS:misses: 236
CS:misses_by_poll: 1

CPLX: 
CPLX:times selected: 9012884
CPLX:pref_filled: 214546
CPLX:pref_useful: 99559
CPLX:pref_late: 139
CPLX:misses: 91265
CPLX:misses_by_poll: 1600

NL_L1: 
NL:times selected: 34203
NL:pref_filled: 1694
NL:pref_useful: 948
NL:pref_late: 2
NL:misses: 1505
NL:misses_by_poll: 0

total selections: 19228493
total_filled: 445297
total_useful: 247323
total_late: 1633
total_polluted: 1601
total_misses_after_warmup: 70457
conflicts: 559944

test: 1112043

DRAM Statistics
 CHANNEL 0
 RQ ROW_BUFFER_HIT:       6996  ROW_BUFFER_MISS:        783
 DBUS_CONGESTED:          0
 WQ ROW_BUFFER_HIT:          0  ROW_BUFFER_MISS:          0  FULL:          0

 AVG_CONGESTED_CYCLE: -
 All warmup complete: 2
Channel 0 Bank busy for read cycles: 0
Channel 0 Bank busy for write cycles: 0
Channel 0
Rank 0
0banks busy for read cycles: 96239040
0banks busy for write cycles: 0
1banks busy for read cycles: 412544
1banks busy for write cycles: 0
2banks busy for read cycles: 23273
2banks busy for write cycles: 0
3banks busy for read cycles: 1416
3banks busy for write cycles: 0
4banks busy for read cycles: 235
4banks busy for write cycles: 0
5banks busy for read cycles: 209
5banks busy for write cycles: 0
6banks busy for read cycles: 323
6banks busy for write cycles: 0
7banks busy for read cycles: 0
7banks busy for write cycles: 0
8banks busy for read cycles: 0
8banks busy for write cycles: 0

CPU 0 Branch Prediction Accuracy: 90.9587% MPKI: 12.7456 Average ROB Occupancy at Mispredict: 39.2423
Branch types
NOT_BRANCH: 42951475 85.903%
BRANCH_DIRECT_JUMP: 384475 0.76895%
BRANCH_INDIRECT: 0 0%
BRANCH_CONDITIONAL: 6342934 12.6859%
BRANCH_DIRECT_CALL: 160565 0.32113%
BRANCH_INDIRECT_CALL: 0 0%
BRANCH_RETURN: 160565 0.32113%
BRANCH_OTHER: 0 0%

DRAM PAGES: 1048576
Allocated PAGES: 468
