
*** ChampSim Multicore Out-of-Order Simulator ***

Warmup Instructions: 50000000
Simulation Instructions: 50000000
Number of CPUs: 1
LLC sets: 2048
LLC ways: 16
Off-chip DRAM Size: 4096 MB Channels: 1 Width: 64-bit Data Rate: 6400 MT/s
CPU 0 runs ./traces/SPEC-CPU2017/648.exchange2_s-1227B.champsimtrace.xz
.xz
CPU 0 Bimodal branch predictor
BTB has LRU replacement policy
ITLB has LRU replacement policy
DTLB has LRU replacement policy
STLB has LRU replacement policy
L1I has LRU replacement policy
L1D has LRU replacement policy
L2C has LRU replacement policy
LLC has LRU replacement policy
Heartbeat CPU 0 instructions: 10000001 cycles: 2774995 heartbeat IPC: 3.60361 cumulative IPC: 3.60361 (Simulation time: 0 hr 6 min 20 sec) 
Heartbeat CPU 0 instructions: 20000000 cycles: 5559455 heartbeat IPC: 3.59136 cumulative IPC: 3.59747 (Simulation time: 0 hr 14 min 3 sec) 
Heartbeat CPU 0 instructions: 30000000 cycles: 8304493 heartbeat IPC: 3.64294 cumulative IPC: 3.6125 (Simulation time: 0 hr 21 min 33 sec) 
Heartbeat CPU 0 instructions: 40000000 cycles: 11065299 heartbeat IPC: 3.62213 cumulative IPC: 3.6149 (Simulation time: 0 hr 29 min 26 sec) 
Heartbeat CPU 0 instructions: 50000003 cycles: 13787862 heartbeat IPC: 3.67301 cumulative IPC: 3.62638 (Simulation time: 0 hr 36 min 51 sec) 

Warmup complete CPU 0 instructions: 50000003 cycles: 13787862 (Simulation time: 0 hr 36 min 51 sec) 

Heartbeat CPU 0 instructions: 60000000 cycles: 28281919 heartbeat IPC: 0.689938 cumulative IPC: 0.689938 (Simulation time: 0 hr 39 min 54 sec) 
Heartbeat CPU 0 instructions: 70000002 cycles: 41063321 heartbeat IPC: 0.782387 cumulative IPC: 0.73326 (Simulation time: 0 hr 41 min 39 sec) 
Heartbeat CPU 0 instructions: 80000000 cycles: 53910673 heartbeat IPC: 0.77837 cumulative IPC: 0.747704 (Simulation time: 0 hr 43 min 30 sec) 
Heartbeat CPU 0 instructions: 90000000 cycles: 66918502 heartbeat IPC: 0.768768 cumulative IPC: 0.752861 (Simulation time: 0 hr 45 min 6 sec) 
Heartbeat CPU 0 instructions: 100000000 cycles: 79693854 heartbeat IPC: 0.782757 cumulative IPC: 0.758656 (Simulation time: 0 hr 46 min 47 sec) 
Finished CPU 0 instructions: 50000000 cycles: 65906001 cumulative IPC: 0.758656 (Simulation time: 0 hr 46 min 47 sec) 

ChampSim completed all CPUs

Region of Interest Statistics

CPU 0 cumulative IPC: 0.758656 instructions: 50000000 cycles: 65906001
ITLB TOTAL     ACCESS:    7507317  HIT:    7507317  MISS:          0  HIT %:        100  MISS %:          0   MPKI: 0
ITLB LOAD TRANSLATION ACCESS:    7507317  HIT:    7507317  MISS:          0  HIT %:        100  MISS %:          0   MPKI: 0
ITLB PREFETCH  REQUESTED:          0  ISSUED:          0  USEFUL:          0  USELESS:          0
ITLB USEFUL LOAD PREFETCHES:          0 PREFETCH ISSUED TO LOWER LEVEL:          0  ACCURACY: -nan
ITLB TIMELY PREFETCHES:          0 LATE PREFETCHES: 0 DROPPED PREFETCHES: 0
ITLB PREFETCHES SAME FILL-ORIGIN LEVEL: 0 DIFFERENT FILL-ORIGIN LEVEL: 0
ITLB AVERAGE MISS LATENCY: -nan cycles
ITLB RQ	ACCESS:    9024820	FORWARD:          0	MERGED:    1517504	TO_CACHE:    7507316

DTLB TOTAL     ACCESS:    9020781  HIT:    9020781  MISS:          0  HIT %:        100  MISS %:          0   MPKI: 0
DTLB LOAD TRANSLATION ACCESS:    9020781  HIT:    9020781  MISS:          0  HIT %:        100  MISS %:          0   MPKI: 0
DTLB PREFETCH  REQUESTED:          0  ISSUED:          0  USEFUL:          0  USELESS:          0
DTLB USEFUL LOAD PREFETCHES:          0 PREFETCH ISSUED TO LOWER LEVEL:          0  ACCURACY: -nan
DTLB TIMELY PREFETCHES:          0 LATE PREFETCHES: 0 DROPPED PREFETCHES: 0
DTLB PREFETCHES SAME FILL-ORIGIN LEVEL: 0 DIFFERENT FILL-ORIGIN LEVEL: 0
DTLB AVERAGE MISS LATENCY: -nan cycles
DTLB RQ	ACCESS:   14017854	FORWARD:          0	MERGED:    4997073	TO_CACHE:    9020781

STLB TOTAL     ACCESS:     539923  HIT:     539923  MISS:          0  HIT %:        100  MISS %:          0   MPKI: 0
STLB TRANSLATION FROM L1D PREFETCHER ACCESS:     539923  HIT:     539923  MISS:          0  HIT %:        100  MISS %:          0   MPKI: 0
STLB PREFETCH  REQUESTED:          0  ISSUED:          0  USEFUL:          0  USELESS:          0
STLB USEFUL LOAD PREFETCHES:          0 PREFETCH ISSUED TO LOWER LEVEL:          0  ACCURACY: -nan
STLB TIMELY PREFETCHES:          0 LATE PREFETCHES: 0 DROPPED PREFETCHES: 0
STLB PREFETCHES SAME FILL-ORIGIN LEVEL: 0 DIFFERENT FILL-ORIGIN LEVEL: 0
STLB AVERAGE MISS LATENCY: -nan cycles
STLB RQ	ACCESS:    2482449	FORWARD:          0	MERGED:    1942526	TO_CACHE:     539923

STLB Hit, L1D data hit: 0
STLB Hit, L2C data hit: 0
STLB Hit, LLC data hit: 0
STLB Hit, LLC data miss: 0
STLB STLB hints to L2: 0
L1D TOTAL     ACCESS:   16500306  HIT:   16500291  MISS:         15  HIT %:    99.9999  MISS %: 9.09074e-05   MPKI: 0.0003
L1D LOAD      ACCESS:    6640342  HIT:    6640340  MISS:          2  HIT %:        100  MISS %: 3.01189e-05   MPKI: 4e-05
L1D RFO       ACCESS:    7377515  HIT:    7377515  MISS:          0  HIT %:        100  MISS %:          0   MPKI: 0
L1D PREFETCH  ACCESS:    2482449  HIT:    2482436  MISS:         13  HIT %:    99.9995  MISS %: 0.000523676   MPKI: 0.00026
AGUS PREFETCH L1 MISS: 0
L1D PREFETCH  REQUESTED:    5715331  ISSUED:    4966978  USEFUL:          7  USELESS:          0
L1D USEFUL LOAD PREFETCHES:          7 PREFETCH ISSUED TO LOWER LEVEL:         13  ACCURACY: 53.8462
L1D TIMELY PREFETCHES:          7 LATE PREFETCHES: 0 DROPPED PREFETCHES: 0
L1D PREFETCHES SAME FILL-ORIGIN LEVEL: 13 DIFFERENT FILL-ORIGIN LEVEL: 0
L1D AVERAGE MISS LATENCY: 181.8 cycles
L1D RQ	ACCESS:   10409037	FORWARD:          0	MERGED:    3717329	TO_CACHE:    6640342
L1D WQ	ACCESS:    8382245	FORWARD:      53424	MERGED:    1004733	TO_CACHE:    7377512
L1D PQ	ACCESS:    2484529	FORWARD:          0	MERGED:         22	TO_CACHE:    2482449

L1D UNIQUE REGIONS ACCESSED: 0
L1D REGIONS CONFLICTS: 0
L1D Cross Page Prefetch Requests: 0
L1D Same Page Prefetch Requests: 4817838
L1D ROI Sum of L1D PQ occupancy: 33198723
L1D PREFETCHES PUSHED FROM L2C: 0
L1I TOTAL     ACCESS:    9023381  HIT:    9019980  MISS:       3401  HIT %:    99.9623  MISS %:   0.037691   MPKI: 0.06802
L1I LOAD      ACCESS:    9023381  HIT:    9019980  MISS:       3401  HIT %:    99.9623  MISS %:   0.037691   MPKI: 0.06802
L1I PREFETCH  REQUESTED:          0  ISSUED:          0  USEFUL:          0  USELESS:          0
L1I USEFUL LOAD PREFETCHES:          0 PREFETCH ISSUED TO LOWER LEVEL:          0  ACCURACY: -nan
L1I TIMELY PREFETCHES:          0 LATE PREFETCHES: 0 DROPPED PREFETCHES: 0
L1I PREFETCHES SAME FILL-ORIGIN LEVEL: 0 DIFFERENT FILL-ORIGIN LEVEL: 0
L1I AVERAGE MISS LATENCY: 13.1185 cycles
L1I RQ	ACCESS:   13896813	FORWARD:          0	MERGED:    4871993	TO_CACHE:    9024820

BTB TOTAL     ACCESS:    6352531  HIT:    6346907  MISS:       5624  HIT %:    99.9115  MISS %:  0.0885316   MPKI: 0.11248
BTB BRANCH_DIRECT_JUMP	ACCESS:     595650  HIT:     595531  MISS:        119
BTB BRANCH_INDIRECT	ACCESS:          0  HIT:          0  MISS:          0
BTB BRANCH_CONDITIONAL	ACCESS:    5724856  HIT:    5724098  MISS:        758
BTB BRANCH_DIRECT_CALL	ACCESS:      16013  HIT:      15931  MISS:         82
BTB BRANCH_INDIRECT_CALL	ACCESS:          0  HIT:          0  MISS:          0
BTB BRANCH_RETURN	ACCESS:      16012  HIT:      11347  MISS:       4665
BTB BRANCH_OTHER ACCESS:          0  HIT:          0  MISS:          0

L2C TOTAL     ACCESS:       3416  HIT:       3399  MISS:         17  HIT %:    99.5023  MISS %:   0.497658   MPKI: 0.00034
L2C LOAD      ACCESS:       3403  HIT:       3399  MISS:          4  HIT %:    99.8825  MISS %:   0.117543   MPKI: 8e-05
L2C DATA LOAD MPKI: 4e-05
L2C INSTRUCTION LOAD MPKI: 4e-05
L2C PREFETCH  ACCESS:         13  HIT:          0  MISS:         13  HIT %:          0  MISS %:        100   MPKI: 0.00026
AGUS PREFETCH L1 MISS: 0
L2C DATA PREFETCH MPKI: 0.00026
L2C INSTRUCTION PREFETCH MPKI: 0
L2C PREFETCH  REQUESTED:          0  ISSUED:          0  USEFUL:          0  USELESS:          0
L2C USEFUL LOAD PREFETCHES:          0 PREFETCH ISSUED TO LOWER LEVEL:         13  ACCURACY: 0
L2C TIMELY PREFETCHES:          0 LATE PREFETCHES: 0 DROPPED PREFETCHES: 0
L2C PREFETCHES SAME FILL-ORIGIN LEVEL: 0 DIFFERENT FILL-ORIGIN LEVEL: 0
L2C AVERAGE MISS LATENCY: 170.588 cycles
L2C RQ	ACCESS:       3403	FORWARD:          0	MERGED:          0	TO_CACHE:       3403
L2C PQ	ACCESS:         13	FORWARD:          0	MERGED:          0	TO_CACHE:         13

L2C Instructions Evicting Data 0
L2C Translations Evicting Data 0
L2C Data Evicting Data 0
L2C Instructions Evicting Instructions 0
L2C Translations Evicting Instructions 0
L2C Data Evicting Instructions 0
L2C Instructions Evicting Translations 0
L2C Translations Evicting Translations 0
L2C Data Evicting Translations 0
L2C Dense regions hint from L2: 0
PSCL5 PREFETCH  REQUESTED:          0  ISSUED:          0  USEFUL:          0  USELESS:          0
PSCL5 USEFUL LOAD PREFETCHES:          0 PREFETCH ISSUED TO LOWER LEVEL:          0  ACCURACY: -nan
PSCL5 TIMELY PREFETCHES:          0 LATE PREFETCHES: 0 DROPPED PREFETCHES: 0
PSCL5 PREFETCHES SAME FILL-ORIGIN LEVEL: 0 DIFFERENT FILL-ORIGIN LEVEL: 0

PSCL4 PREFETCH  REQUESTED:          0  ISSUED:          0  USEFUL:          0  USELESS:          0
PSCL4 USEFUL LOAD PREFETCHES:          0 PREFETCH ISSUED TO LOWER LEVEL:          0  ACCURACY: -nan
PSCL4 TIMELY PREFETCHES:          0 LATE PREFETCHES: 0 DROPPED PREFETCHES: 0
PSCL4 PREFETCHES SAME FILL-ORIGIN LEVEL: 0 DIFFERENT FILL-ORIGIN LEVEL: 0

PSCL3 PREFETCH  REQUESTED:          0  ISSUED:          0  USEFUL:          0  USELESS:          0
PSCL3 USEFUL LOAD PREFETCHES:          0 PREFETCH ISSUED TO LOWER LEVEL:          0  ACCURACY: -nan
PSCL3 TIMELY PREFETCHES:          0 LATE PREFETCHES: 0 DROPPED PREFETCHES: 0
PSCL3 PREFETCHES SAME FILL-ORIGIN LEVEL: 0 DIFFERENT FILL-ORIGIN LEVEL: 0

PSCL2 PREFETCH  REQUESTED:          0  ISSUED:          0  USEFUL:          0  USELESS:          0
PSCL2 USEFUL LOAD PREFETCHES:          0 PREFETCH ISSUED TO LOWER LEVEL:          0  ACCURACY: -nan
PSCL2 TIMELY PREFETCHES:          0 LATE PREFETCHES: 0 DROPPED PREFETCHES: 0
PSCL2 PREFETCHES SAME FILL-ORIGIN LEVEL: 0 DIFFERENT FILL-ORIGIN LEVEL: 0

LLC TOTAL     ACCESS:         17  HIT:          0  MISS:         17  HIT %:          0  MISS %:        100   MPKI: 0.00034
LLC LOAD      ACCESS:          4  HIT:          0  MISS:          4  HIT %:          0  MISS %:        100   MPKI: 8e-05
LLC PREFETCH  ACCESS:         13  HIT:          0  MISS:         13  HIT %:          0  MISS %:        100   MPKI: 0.00026
AGUS PREFETCH L1 MISS: 0
LLC PREFETCH  REQUESTED:          0  ISSUED:          0  USEFUL:          0  USELESS:          0
LLC USEFUL LOAD PREFETCHES:          0 PREFETCH ISSUED TO LOWER LEVEL:         13  ACCURACY: 0
LLC TIMELY PREFETCHES:          0 LATE PREFETCHES: 0 DROPPED PREFETCHES: 0
LLC PREFETCHES SAME FILL-ORIGIN LEVEL: 0 DIFFERENT FILL-ORIGIN LEVEL: 0
LLC AVERAGE MISS LATENCY: 140.588 cycles
LLC RQ	ACCESS:          4	FORWARD:          0	MERGED:          0	TO_CACHE:          4
LLC PQ	ACCESS:         13	FORWARD:          0	MERGED:          0	TO_CACHE:         13

LLC Dense regions hint to LLC: 0

RAW hits: 1586238
Loads Generated: 11995275
Loads sent to L1D: 10409037
Stores Generated: 8382238
Stores sent to L1D: 8382245
Major fault: 0 Minor fault: 58
Allocated PAGES: 58

stream: 
stream:times selected: 2519947
stream:pref_filled: 95
stream:pref_useful: 77
stream:pref_late: 1
stream:misses: 3
stream:misses_by_poll: 0

CS: 
CS:times selected: 971277
CS:pref_filled: 6
CS:pref_useful: 1
CS:pref_late: 0
CS:misses: 3
CS:misses_by_poll: 0

CPLX: 
CPLX:times selected: 1548538
CPLX:pref_filled: 224
CPLX:pref_useful: 66
CPLX:pref_late: 0
CPLX:misses: 2
CPLX:misses_by_poll: 0

NL_L1: 
NL:times selected: 1691
NL:pref_filled: 2
NL:pref_useful: 1
NL:pref_late: 0
NL:misses: 2
NL:misses_by_poll: 0

total selections: 5041453
total_filled: 13
total_useful: 7
total_late: 1
total_polluted: 0
total_misses_after_warmup: 2
conflicts: 3220400

test: 223339

DRAM Statistics
 CHANNEL 0
 RQ ROW_BUFFER_HIT:          5  ROW_BUFFER_MISS:         12
 DBUS_CONGESTED:          0
 WQ ROW_BUFFER_HIT:          0  ROW_BUFFER_MISS:          0  FULL:          0

 AVG_CONGESTED_CYCLE: -
 All warmup complete: 2
Channel 0 Bank busy for read cycles: 0
Channel 0 Bank busy for write cycles: 0
Channel 0
Rank 0
0banks busy for read cycles: 65904151
0banks busy for write cycles: 0
1banks busy for read cycles: 1652
1banks busy for write cycles: 0
2banks busy for read cycles: 199
2banks busy for write cycles: 0
3banks busy for read cycles: 0
3banks busy for write cycles: 0
4banks busy for read cycles: 0
4banks busy for write cycles: 0
5banks busy for read cycles: 0
5banks busy for write cycles: 0
6banks busy for read cycles: 0
6banks busy for write cycles: 0
7banks busy for read cycles: 0
7banks busy for write cycles: 0
8banks busy for read cycles: 0
8banks busy for write cycles: 0

CPU 0 Branch Prediction Accuracy: 83.7383% MPKI: 22.7765 Average ROB Occupancy at Mispredict: 20.573
Branch types
NOT_BRANCH: 42996621 85.9932%
BRANCH_DIRECT_JUMP: 595650 1.1913%
BRANCH_INDIRECT: 0 0%
BRANCH_CONDITIONAL: 6375425 12.7508%
BRANCH_DIRECT_CALL: 16013 0.032026%
BRANCH_INDIRECT_CALL: 0 0%
BRANCH_RETURN: 16012 0.032024%
BRANCH_OTHER: 0 0%

DRAM PAGES: 1048576
Allocated PAGES: 58
