
*** ChampSim Multicore Out-of-Order Simulator ***

Warmup Instructions: 50000000
Simulation Instructions: 50000000
Number of CPUs: 1
LLC sets: 2048
LLC ways: 16
Off-chip DRAM Size: 4096 MB Channels: 1 Width: 64-bit Data Rate: 6400 MT/s
CPU 0 runs ./traces/SPEC-CPU2017/649.fotonik3d_s-10881B.champsimtrace.xz
.xz
CPU 0 Bimodal branch predictor
BTB has LRU replacement policy
ITLB has LRU replacement policy
DTLB has LRU replacement policy
STLB has LRU replacement policy
L1I has LRU replacement policy
L1D has LRU replacement policy
L2C has LRU replacement policy
LLC has LRU replacement policy
Heartbeat CPU 0 instructions: 10000002 cycles: 5237578 heartbeat IPC: 1.90928 cumulative IPC: 1.90928 (Simulation time: 0 hr 1 min 39 sec) 
Heartbeat CPU 0 instructions: 20000000 cycles: 10479556 heartbeat IPC: 1.90768 cumulative IPC: 1.90848 (Simulation time: 0 hr 3 min 25 sec) 
Heartbeat CPU 0 instructions: 30000003 cycles: 15733999 heartbeat IPC: 1.90315 cumulative IPC: 1.9067 (Simulation time: 0 hr 5 min 9 sec) 
Heartbeat CPU 0 instructions: 40000000 cycles: 20972914 heartbeat IPC: 1.90879 cumulative IPC: 1.90722 (Simulation time: 0 hr 6 min 40 sec) 
Heartbeat CPU 0 instructions: 50000000 cycles: 26196034 heartbeat IPC: 1.91456 cumulative IPC: 1.90869 (Simulation time: 0 hr 8 min 25 sec) 

Warmup complete CPU 0 instructions: 50000004 cycles: 26196035 (Simulation time: 0 hr 8 min 25 sec) 

Heartbeat CPU 0 instructions: 60000000 cycles: 45721614 heartbeat IPC: 0.512149 cumulative IPC: 0.512148 (Simulation time: 0 hr 10 min 23 sec) 
Heartbeat CPU 0 instructions: 70000000 cycles: 65238214 heartbeat IPC: 0.512384 cumulative IPC: 0.512266 (Simulation time: 0 hr 12 min 7 sec) 
Heartbeat CPU 0 instructions: 80000000 cycles: 84693262 heartbeat IPC: 0.514005 cumulative IPC: 0.512845 (Simulation time: 0 hr 13 min 33 sec) 
Heartbeat CPU 0 instructions: 90000003 cycles: 104209097 heartbeat IPC: 0.512405 cumulative IPC: 0.512735 (Simulation time: 0 hr 14 min 49 sec) 
Heartbeat CPU 0 instructions: 100000000 cycles: 123774478 heartbeat IPC: 0.511107 cumulative IPC: 0.512408 (Simulation time: 0 hr 15 min 57 sec) 
Finished CPU 0 instructions: 50000001 cycles: 97578483 cumulative IPC: 0.512408 (Simulation time: 0 hr 15 min 57 sec) 

ChampSim completed all CPUs

Region of Interest Statistics

CPU 0 cumulative IPC: 0.512408 instructions: 50000001 cycles: 97578483
ITLB TOTAL     ACCESS:    7741800  HIT:    7741800  MISS:          0  HIT %:        100  MISS %:          0   MPKI: 0
ITLB LOAD TRANSLATION ACCESS:    7741800  HIT:    7741800  MISS:          0  HIT %:        100  MISS %:          0   MPKI: 0
ITLB PREFETCH  REQUESTED:          0  ISSUED:          0  USEFUL:          0  USELESS:          0
ITLB USEFUL LOAD PREFETCHES:          0 PREFETCH ISSUED TO LOWER LEVEL:          0  ACCURACY: -nan
ITLB TIMELY PREFETCHES:          0 LATE PREFETCHES: 0 DROPPED PREFETCHES: 0
ITLB PREFETCHES SAME FILL-ORIGIN LEVEL: 0 DIFFERENT FILL-ORIGIN LEVEL: 0
ITLB AVERAGE MISS LATENCY: -nan cycles
ITLB RQ	ACCESS:    8631359	FORWARD:          0	MERGED:     889560	TO_CACHE:    7741799

DTLB TOTAL     ACCESS:   21427851  HIT:   21162182  MISS:     265669  HIT %:    98.7602  MISS %:    1.23983   MPKI: 5.31338
DTLB LOAD TRANSLATION ACCESS:   21427851  HIT:   21162182  MISS:     265669  HIT %:    98.7602  MISS %:    1.23983   MPKI: 5.31338
DTLB PREFETCH  REQUESTED:          0  ISSUED:          0  USEFUL:          0  USELESS:          0
DTLB USEFUL LOAD PREFETCHES:          0 PREFETCH ISSUED TO LOWER LEVEL:          0  ACCURACY: -nan
DTLB TIMELY PREFETCHES:          0 LATE PREFETCHES: 0 DROPPED PREFETCHES: 0
DTLB PREFETCHES SAME FILL-ORIGIN LEVEL: 0 DIFFERENT FILL-ORIGIN LEVEL: 0
DTLB AVERAGE MISS LATENCY: 136.329 cycles
DTLB RQ	ACCESS:   23922817	FORWARD:          0	MERGED:    2480872	TO_CACHE:   21441945

STLB TOTAL     ACCESS:     787069  HIT:     617308  MISS:     169761  HIT %:    78.4312  MISS %:    21.5688   MPKI: 3.39522
STLB LOAD TRANSLATION ACCESS:     265669  HIT:     130115  MISS:     135554  HIT %:    48.9764  MISS %:    51.0236   MPKI: 2.71108
STLB TRANSLATION FROM L1D PREFETCHER ACCESS:     521400  HIT:     487193  MISS:      34207  HIT %:    93.4394  MISS %:    6.56061   MPKI: 0.68414
STLB PREFETCH  REQUESTED:          0  ISSUED:          0  USEFUL:      34198  USELESS:         10
STLB USEFUL LOAD PREFETCHES:      34198 PREFETCH ISSUED TO LOWER LEVEL:          0  ACCURACY: inf
STLB TIMELY PREFETCHES:      34198 LATE PREFETCHES: 3 DROPPED PREFETCHES: 0
STLB PREFETCHES SAME FILL-ORIGIN LEVEL: 0 DIFFERENT FILL-ORIGIN LEVEL: 0
STLB AVERAGE MISS LATENCY: 205.624 cycles
STLB RQ	ACCESS:    1216286	FORWARD:          0	MERGED:     428903	TO_CACHE:     787383

STLB Hit, L1D data hit: 0
STLB Hit, L2C data hit: 0
STLB Hit, LLC data hit: 0
STLB Hit, LLC data miss: 0
STLB STLB hints to L2: 0
L1D TOTAL     ACCESS:   24702101  HIT:   23382107  MISS:    1319994  HIT %:    94.6563  MISS %:    5.34365   MPKI: 26.3999
L1D LOAD      ACCESS:   20563226  HIT:   20033222  MISS:     530004  HIT %:    97.4226  MISS %:    2.57744   MPKI: 10.6001
L1D RFO       ACCESS:    3205648  HIT:    3205648  MISS:          0  HIT %:        100  MISS %:          0   MPKI: 0
L1D PREFETCH  ACCESS:     933227  HIT:     143237  MISS:     789990  HIT %:    15.3486  MISS %:    84.6514   MPKI: 15.7998
AGUS PREFETCH L1 MISS: 0
L1D PREFETCH  REQUESTED:    1960104  ISSUED:    1901234  USEFUL:     431995  USELESS:     358032
L1D USEFUL LOAD PREFETCHES:     431995 PREFETCH ISSUED TO LOWER LEVEL:     795965  ACCURACY: 54.2731
L1D TIMELY PREFETCHES:     431995 LATE PREFETCHES: 5976 DROPPED PREFETCHES: 0
L1D PREFETCHES SAME FILL-ORIGIN LEVEL: 795965 DIFFERENT FILL-ORIGIN LEVEL: 0
L1D AVERAGE MISS LATENCY: 214.998 cycles
L1D RQ	ACCESS:   31922945	FORWARD:          0	MERGED:   11197532	TO_CACHE:   20717169
L1D WQ	ACCESS:    3205648	FORWARD:       8244	MERGED:          0	TO_CACHE:    3205648
L1D PQ	ACCESS:     950617	FORWARD:          0	MERGED:          0	TO_CACHE:     950617

L1D UNIQUE REGIONS ACCESSED: 0
L1D REGIONS CONFLICTS: 0
L1D Cross Page Prefetch Requests: 155273
L1D Same Page Prefetch Requests: 1724448
L1D ROI Sum of L1D PQ occupancy: 21791623
L1D PREFETCHES PUSHED FROM L2C: 0
L1I TOTAL     ACCESS:    8631360  HIT:    8631360  MISS:          0  HIT %:        100  MISS %:          0   MPKI: 0
L1I LOAD      ACCESS:    8631360  HIT:    8631360  MISS:          0  HIT %:        100  MISS %:          0   MPKI: 0
L1I PREFETCH  REQUESTED:          0  ISSUED:          0  USEFUL:          0  USELESS:          0
L1I USEFUL LOAD PREFETCHES:          0 PREFETCH ISSUED TO LOWER LEVEL:          0  ACCURACY: -nan
L1I TIMELY PREFETCHES:          0 LATE PREFETCHES: 0 DROPPED PREFETCHES: 0
L1I PREFETCHES SAME FILL-ORIGIN LEVEL: 0 DIFFERENT FILL-ORIGIN LEVEL: 0
L1I AVERAGE MISS LATENCY: -nan cycles
L1I RQ	ACCESS:   15168848	FORWARD:          0	MERGED:    6537489	TO_CACHE:    8631359

BTB TOTAL     ACCESS:     560941  HIT:     560936  MISS:          5  HIT %:    99.9991  MISS %: 0.000891359   MPKI: 0.0001
BTB BRANCH_DIRECT_JUMP	ACCESS:      40061  HIT:      40060  MISS:          1
BTB BRANCH_INDIRECT	ACCESS:          0  HIT:          0  MISS:          0
BTB BRANCH_CONDITIONAL	ACCESS:     520880  HIT:     520876  MISS:          4
BTB BRANCH_DIRECT_CALL	ACCESS:          0  HIT:          0  MISS:          0
BTB BRANCH_INDIRECT_CALL	ACCESS:          0  HIT:          0  MISS:          0
BTB BRANCH_RETURN	ACCESS:          0  HIT:          0  MISS:          0
BTB BRANCH_OTHER ACCESS:          0  HIT:          0  MISS:          0

L2C TOTAL     ACCESS:    1975524  HIT:     646060  MISS:    1329464  HIT %:    32.7032  MISS %:    67.2968   MPKI: 26.5893
L2C LOAD      ACCESS:     524028  HIT:       5182  MISS:     518846  HIT %:   0.988878  MISS %:    99.0111   MPKI: 10.3769
L2C DATA LOAD MPKI: 10.3769
L2C INSTRUCTION LOAD MPKI: 0
L2C PREFETCH  ACCESS:     795965  HIT:       7034  MISS:     788931  HIT %:   0.883707  MISS %:    99.1163   MPKI: 15.7786
AGUS PREFETCH L1 MISS: 0
L2C DATA PREFETCH MPKI: 15.7786
L2C INSTRUCTION PREFETCH MPKI: 0
L2C WRITEBACK ACCESS:     485719  HIT:     485719  MISS:          0  HIT %:        100  MISS %:          0   MPKI: 0
L2C LOAD TRANSLATION ACCESS:     135596  HIT:     118349  MISS:      17247  HIT %:    87.2806  MISS %:    12.7194   MPKI: 0.34494
L2C TRANSLATION FROM L1D PREFETCHER ACCESS:      34216  HIT:      29776  MISS:       4440  HIT %:    87.0236  MISS %:    12.9764   MPKI: 0.0888
L2C PREFETCH  REQUESTED:          0  ISSUED:          0  USEFUL:       9605  USELESS:     783725
L2C USEFUL LOAD PREFETCHES:       9605 PREFETCH ISSUED TO LOWER LEVEL:     788931  ACCURACY: 1.21747
L2C TIMELY PREFETCHES:       9605 LATE PREFETCHES: 0 DROPPED PREFETCHES: 0
L2C PREFETCHES SAME FILL-ORIGIN LEVEL: 0 DIFFERENT FILL-ORIGIN LEVEL: 0
L2C AVERAGE MISS LATENCY: 187.95 cycles
L2C RQ	ACCESS:     693840	FORWARD:          0	MERGED:          0	TO_CACHE:     693840
L2C WQ	ACCESS:     485719	FORWARD:          0	MERGED:          0	TO_CACHE:     485719
L2C PQ	ACCESS:     795965	FORWARD:          0	MERGED:          0	TO_CACHE:     795965

L2C Instructions Evicting Data 0
L2C Translations Evicting Data 21502
L2C Data Evicting Data 1286278
L2C Instructions Evicting Instructions 0
L2C Translations Evicting Instructions 0
L2C Data Evicting Instructions 0
L2C Instructions Evicting Translations 0
L2C Translations Evicting Translations 185
L2C Data Evicting Translations 21499
L2C Dense regions hint from L2: 0
PSCL5 TOTAL     ACCESS:     169761  HIT:     169761  MISS:          0  HIT %:        100  MISS %:          0   MPKI: 0
PSCL5 LOAD TRANSLATION ACCESS:     135551  HIT:     135551  MISS:          0  HIT %:        100  MISS %:          0   MPKI: 0
PSCL5 TRANSLATION FROM L1D PREFETCHER ACCESS:      34210  HIT:      34210  MISS:          0  HIT %:        100  MISS %:          0   MPKI: 0
PSCL5 PREFETCH  REQUESTED:          0  ISSUED:          0  USEFUL:          0  USELESS:          0
PSCL5 USEFUL LOAD PREFETCHES:          0 PREFETCH ISSUED TO LOWER LEVEL:          0  ACCURACY: -nan
PSCL5 TIMELY PREFETCHES:          0 LATE PREFETCHES: 0 DROPPED PREFETCHES: 0
PSCL5 PREFETCHES SAME FILL-ORIGIN LEVEL: 0 DIFFERENT FILL-ORIGIN LEVEL: 0

PSCL4 TOTAL     ACCESS:     169761  HIT:     169761  MISS:          0  HIT %:        100  MISS %:          0   MPKI: 0
PSCL4 LOAD TRANSLATION ACCESS:     135551  HIT:     135551  MISS:          0  HIT %:        100  MISS %:          0   MPKI: 0
PSCL4 TRANSLATION FROM L1D PREFETCHER ACCESS:      34210  HIT:      34210  MISS:          0  HIT %:        100  MISS %:          0   MPKI: 0
PSCL4 PREFETCH  REQUESTED:          0  ISSUED:          0  USEFUL:          0  USELESS:          0
PSCL4 USEFUL LOAD PREFETCHES:          0 PREFETCH ISSUED TO LOWER LEVEL:          0  ACCURACY: -nan
PSCL4 TIMELY PREFETCHES:          0 LATE PREFETCHES: 0 DROPPED PREFETCHES: 0
PSCL4 PREFETCHES SAME FILL-ORIGIN LEVEL: 0 DIFFERENT FILL-ORIGIN LEVEL: 0

PSCL3 TOTAL     ACCESS:     169761  HIT:     169761  MISS:          0  HIT %:        100  MISS %:          0   MPKI: 0
PSCL3 LOAD TRANSLATION ACCESS:     135551  HIT:     135551  MISS:          0  HIT %:        100  MISS %:          0   MPKI: 0
PSCL3 TRANSLATION FROM L1D PREFETCHER ACCESS:      34210  HIT:      34210  MISS:          0  HIT %:        100  MISS %:          0   MPKI: 0
PSCL3 PREFETCH  REQUESTED:          0  ISSUED:          0  USEFUL:          0  USELESS:          0
PSCL3 USEFUL LOAD PREFETCHES:          0 PREFETCH ISSUED TO LOWER LEVEL:          0  ACCURACY: -nan
PSCL3 TIMELY PREFETCHES:          0 LATE PREFETCHES: 0 DROPPED PREFETCHES: 0
PSCL3 PREFETCHES SAME FILL-ORIGIN LEVEL: 0 DIFFERENT FILL-ORIGIN LEVEL: 0

PSCL2 TOTAL     ACCESS:     169761  HIT:     169462  MISS:        299  HIT %:    99.8239  MISS %:    0.17613   MPKI: 0.00598
PSCL2 LOAD TRANSLATION ACCESS:     135557  HIT:     135258  MISS:        299  HIT %:    99.7794  MISS %:   0.220571   MPKI: 0.00598
PSCL2 TRANSLATION FROM L1D PREFETCHER ACCESS:      34204  HIT:      34204  MISS:          0  HIT %:        100  MISS %:          0   MPKI: 0
PSCL2 PREFETCH  REQUESTED:          0  ISSUED:          0  USEFUL:          0  USELESS:          0
PSCL2 USEFUL LOAD PREFETCHES:          0 PREFETCH ISSUED TO LOWER LEVEL:          0  ACCURACY: -nan
PSCL2 TIMELY PREFETCHES:          0 LATE PREFETCHES: 0 DROPPED PREFETCHES: 0
PSCL2 PREFETCHES SAME FILL-ORIGIN LEVEL: 0 DIFFERENT FILL-ORIGIN LEVEL: 0

LLC TOTAL     ACCESS:    1815118  HIT:     601730  MISS:    1213388  HIT %:     33.151  MISS %:     66.849   MPKI: 24.2678
LLC LOAD      ACCESS:     518846  HIT:      39687  MISS:     479159  HIT %:    7.64909  MISS %:    92.3509   MPKI: 9.58318
LLC PREFETCH  ACCESS:     788931  HIT:      73378  MISS:     715553  HIT %:    9.30094  MISS %:    90.6991   MPKI: 14.3111
AGUS PREFETCH L1 MISS: 0
LLC WRITEBACK ACCESS:     485654  HIT:     485654  MISS:          0  HIT %:        100  MISS %:          0   MPKI: 0
LLC LOAD TRANSLATION ACCESS:      17247  HIT:        679  MISS:      16568  HIT %:    3.93692  MISS %:    96.0631   MPKI: 0.33136
LLC TRANSLATION FROM L1D PREFETCHER ACCESS:       4440  HIT:       2332  MISS:       2108  HIT %:    52.5225  MISS %:    47.4775   MPKI: 0.04216
LLC PREFETCH  REQUESTED:          0  ISSUED:          0  USEFUL:      28797  USELESS:     688212
LLC USEFUL LOAD PREFETCHES:      28797 PREFETCH ISSUED TO LOWER LEVEL:     715553  ACCURACY: 4.02444
LLC TIMELY PREFETCHES:      28797 LATE PREFETCHES: 0 DROPPED PREFETCHES: 0
LLC PREFETCHES SAME FILL-ORIGIN LEVEL: 0 DIFFERENT FILL-ORIGIN LEVEL: 0
LLC AVERAGE MISS LATENCY: 167.449 cycles
LLC RQ	ACCESS:     540533	FORWARD:          0	MERGED:          0	TO_CACHE:     540533
LLC WQ	ACCESS:     485654	FORWARD:          0	MERGED:          0	TO_CACHE:     485654
LLC PQ	ACCESS:     788931	FORWARD:          0	MERGED:          0	TO_CACHE:     788931

LLC Dense regions hint to LLC: 0

RAW hits: 87442
Loads Generated: 32010388
Loads sent to L1D: 31922945
Stores Generated: 3205648
Stores sent to L1D: 3205648
Major fault: 0 Minor fault: 257109
Allocated PAGES: 257109

stream: 
stream:times selected: 1061802
stream:pref_filled: 661514
stream:pref_useful: 333619
stream:pref_late: 5074
stream:misses: 184782
stream:misses_by_poll: 0

CS: 
CS:times selected: 128853
CS:pref_filled: 303427
CS:pref_useful: 168322
CS:pref_late: 335
CS:misses: 147891
CS:misses_by_poll: 507

CPLX: 
CPLX:times selected: 888557
CPLX:pref_filled: 396798
CPLX:pref_useful: 175570
CPLX:pref_late: 455
CPLX:misses: 865966
CPLX:misses_by_poll: 761

NL_L1: 
NL:times selected: 8674
NL:pref_filled: 8436
NL:pref_useful: 5688
NL:pref_late: 13
NL:misses: 9813
NL:misses_by_poll: 1

Coverage: 44.906
total selections: 2087886
total_filled: 789990
total_useful: 431995
total_late: 6025
total_polluted: 1269
total_misses_after_warmup: 683939
conflicts: 315

test: 354238
ISB Prefetcher final stats
Training Unit Size: 26
Addr table size: 1001058 1001058


Triggers: 1061808
No Prediction: 1002605 94.4243
Stream end: 20771
No translation: 20788875 1957.88
Predictions: 205118 19.3178


Stream divergence: 55468 5.22392
Stream divergence -- new stream: 0

DRAM Statistics
 CHANNEL 0
 RQ ROW_BUFFER_HIT:     412007  ROW_BUFFER_MISS:     801381
 DBUS_CONGESTED:        475
 WQ ROW_BUFFER_HIT:      76577  ROW_BUFFER_MISS:     409181  FULL:          0

 AVG_CONGESTED_CYCLE: 4
 All warmup complete: 2
Channel 0 Bank busy for read cycles: 0
Channel 0 Bank busy for write cycles: 0
Channel 0
Rank 0
0banks busy for read cycles: 13151643
0banks busy for write cycles: 81421
1banks busy for read cycles: 16772002
1banks busy for write cycles: 9034700
2banks busy for read cycles: 12984670
2banks busy for write cycles: 7155820
3banks busy for read cycles: 8092793
3banks busy for write cycles: 5452460
4banks busy for read cycles: 6410609
4banks busy for write cycles: 4035294
5banks busy for read cycles: 4310344
5banks busy for write cycles: 2951583
6banks busy for read cycles: 2546500
6banks busy for write cycles: 1864320
7banks busy for read cycles: 1207589
7banks busy for write cycles: 923140
8banks busy for read cycles: 358600
8banks busy for write cycles: 244996

CPU 0 Branch Prediction Accuracy: 93.3275% MPKI: 0.80204 Average ROB Occupancy at Mispredict: 246.659
Branch types
NOT_BRANCH: 49399000 98.798%
BRANCH_DIRECT_JUMP: 40061 0.080122%
BRANCH_INDIRECT: 0 0%
BRANCH_CONDITIONAL: 560941 1.12188%
BRANCH_DIRECT_CALL: 0 0%
BRANCH_INDIRECT_CALL: 0 0%
BRANCH_RETURN: 0 0%
BRANCH_OTHER: 0 0%

DRAM PAGES: 1048576
Allocated PAGES: 257109
