
*** ChampSim Multicore Out-of-Order Simulator ***

Warmup Instructions: 50000000
Simulation Instructions: 50000000
Number of CPUs: 1
LLC sets: 2048
LLC ways: 16
Off-chip DRAM Size: 4096 MB Channels: 1 Width: 64-bit Data Rate: 6400 MT/s
CPU 0 runs ./traces/SPEC-CPU2017/649.fotonik3d_s-10881B.champsimtrace.xz
.xz
CPU 0 Bimodal branch predictor
BTB has LRU replacement policy
ITLB has LRU replacement policy
DTLB has LRU replacement policy
STLB has LRU replacement policy
L1I has LRU replacement policy
L1D has LRU replacement policy
L2C has LRU replacement policy
LLC has LRU replacement policy
Heartbeat CPU 0 instructions: 10000002 cycles: 5237934 heartbeat IPC: 1.90915 cumulative IPC: 1.90915 (Simulation time: 0 hr 18 min 59 sec) 
Heartbeat CPU 0 instructions: 20000000 cycles: 10482251 heartbeat IPC: 1.90683 cumulative IPC: 1.90799 (Simulation time: 0 hr 42 min 24 sec) 
Heartbeat CPU 0 instructions: 30000000 cycles: 15738222 heartbeat IPC: 1.9026 cumulative IPC: 1.90619 (Simulation time: 1 hr 1 min 18 sec) 
Heartbeat CPU 0 instructions: 40000000 cycles: 20977783 heartbeat IPC: 1.90856 cumulative IPC: 1.90678 (Simulation time: 1 hr 15 min 32 sec) 
Heartbeat CPU 0 instructions: 50000000 cycles: 26202937 heartbeat IPC: 1.91382 cumulative IPC: 1.90818 (Simulation time: 1 hr 29 min 8 sec) 

Warmup complete CPU 0 instructions: 50000004 cycles: 26202938 (Simulation time: 1 hr 29 min 8 sec) 

Heartbeat CPU 0 instructions: 60000000 cycles: 44778206 heartbeat IPC: 0.53835 cumulative IPC: 0.53835 (Simulation time: 1 hr 35 min 18 sec) 
Heartbeat CPU 0 instructions: 70000000 cycles: 63824177 heartbeat IPC: 0.525045 cumulative IPC: 0.531614 (Simulation time: 1 hr 41 min 34 sec) 
Heartbeat CPU 0 instructions: 80000000 cycles: 82597621 heartbeat IPC: 0.532667 cumulative IPC: 0.531965 (Simulation time: 1 hr 47 min 56 sec) 
Heartbeat CPU 0 instructions: 90000003 cycles: 101253713 heartbeat IPC: 0.536018 cumulative IPC: 0.532973 (Simulation time: 1 hr 54 min 19 sec) 
Heartbeat CPU 0 instructions: 100000000 cycles: 119941708 heartbeat IPC: 0.535103 cumulative IPC: 0.533397 (Simulation time: 2 hr 0 min 45 sec) 
Finished CPU 0 instructions: 50000001 cycles: 93738810 cumulative IPC: 0.533397 (Simulation time: 2 hr 0 min 45 sec) 

ChampSim completed all CPUs

Region of Interest Statistics

CPU 0 cumulative IPC: 0.533397 instructions: 50000001 cycles: 93738810
ITLB TOTAL     ACCESS:    7685222  HIT:    7685222  MISS:          0  HIT %:        100  MISS %:          0   MPKI: 0
ITLB LOAD TRANSLATION ACCESS:    7685222  HIT:    7685222  MISS:          0  HIT %:        100  MISS %:          0   MPKI: 0
ITLB PREFETCH  REQUESTED:          0  ISSUED:          0  USEFUL:          0  USELESS:          0
ITLB USEFUL LOAD PREFETCHES:          0 PREFETCH ISSUED TO LOWER LEVEL:          0  ACCURACY: -nan
ITLB TIMELY PREFETCHES:          0 LATE PREFETCHES: 0 DROPPED PREFETCHES: 0
ITLB PREFETCHES SAME FILL-ORIGIN LEVEL: 0 DIFFERENT FILL-ORIGIN LEVEL: 0
ITLB AVERAGE MISS LATENCY: -nan cycles
ITLB RQ	ACCESS:    8616244	FORWARD:          0	MERGED:     931023	TO_CACHE:    7685221

DTLB TOTAL     ACCESS:   21354360  HIT:   21089179  MISS:     265181  HIT %:    98.7582  MISS %:    1.24181   MPKI: 5.30362
DTLB LOAD TRANSLATION ACCESS:   21354360  HIT:   21089179  MISS:     265181  HIT %:    98.7582  MISS %:    1.24181   MPKI: 5.30362
DTLB PREFETCH  REQUESTED:          0  ISSUED:          0  USEFUL:          0  USELESS:          0
DTLB USEFUL LOAD PREFETCHES:          0 PREFETCH ISSUED TO LOWER LEVEL:          0  ACCURACY: -nan
DTLB TIMELY PREFETCHES:          0 LATE PREFETCHES: 0 DROPPED PREFETCHES: 0
DTLB PREFETCHES SAME FILL-ORIGIN LEVEL: 0 DIFFERENT FILL-ORIGIN LEVEL: 0
DTLB AVERAGE MISS LATENCY: 129.896 cycles
DTLB RQ	ACCESS:   23838685	FORWARD:          0	MERGED:    2470272	TO_CACHE:   21368413

STLB TOTAL     ACCESS:    4601218  HIT:    4431589  MISS:     169629  HIT %:    96.3134  MISS %:    3.68661   MPKI: 3.39258
STLB LOAD TRANSLATION ACCESS:     265181  HIT:     137252  MISS:     127929  HIT %:    51.7579  MISS %:    48.2421   MPKI: 2.55858
STLB TRANSLATION FROM L1D PREFETCHER ACCESS:    4336037  HIT:    4294337  MISS:      41700  HIT %:    99.0383  MISS %:   0.961708   MPKI: 0.834
STLB PREFETCH  REQUESTED:          0  ISSUED:          0  USEFUL:      41697  USELESS:          2
STLB USEFUL LOAD PREFETCHES:      41697 PREFETCH ISSUED TO LOWER LEVEL:          0  ACCURACY: inf
STLB TIMELY PREFETCHES:      41697 LATE PREFETCHES: 0 DROPPED PREFETCHES: 0
STLB PREFETCHES SAME FILL-ORIGIN LEVEL: 0 DIFFERENT FILL-ORIGIN LEVEL: 0
STLB AVERAGE MISS LATENCY: 190.487 cycles
STLB RQ	ACCESS:   11333098	FORWARD:          0	MERGED:    6731356	TO_CACHE:    4601742

STLB Hit, L1D data hit: 0
STLB Hit, L2C data hit: 0
STLB Hit, LLC data hit: 0
STLB Hit, LLC data miss: 0
STLB STLB hints to L2: 0
L1D TOTAL     ACCESS:   34708440  HIT:   33464794  MISS:    1243646  HIT %:    96.4169  MISS %:    3.58312   MPKI: 24.8729
L1D LOAD      ACCESS:   20527008  HIT:   20153198  MISS:     373810  HIT %:    98.1789  MISS %:    1.82106   MPKI: 7.4762
L1D RFO       ACCESS:    3205648  HIT:    3205648  MISS:          0  HIT %:        100  MISS %:          0   MPKI: 0
L1D PREFETCH  ACCESS:   10975784  HIT:   10105948  MISS:     869836  HIT %:     92.075  MISS %:    7.92505   MPKI: 17.3967
AGUS PREFETCH L1 MISS: 0
L1D PREFETCH  REQUESTED:   37264252  ISSUED:   22172704  USEFUL:     588190  USELESS:     281685
L1D USEFUL LOAD PREFETCHES:     588190 PREFETCH ISSUED TO LOWER LEVEL:     874417  ACCURACY: 67.2665
L1D TIMELY PREFETCHES:     588190 LATE PREFETCHES: 4581 DROPPED PREFETCHES: 0
L1D PREFETCHES SAME FILL-ORIGIN LEVEL: 874417 DIFFERENT FILL-ORIGIN LEVEL: 0
L1D AVERAGE MISS LATENCY: 215.709 cycles
L1D RQ	ACCESS:   31925394	FORWARD:          0	MERGED:   11284300	TO_CACHE:   20633037
L1D WQ	ACCESS:    3205648	FORWARD:       8058	MERGED:          0	TO_CACHE:    3205648
L1D PQ	ACCESS:   11104787	FORWARD:          0	MERGED:      36869	TO_CACHE:   11067917

L1D UNIQUE REGIONS ACCESSED: 0
L1D REGIONS CONFLICTS: 0
L1D Cross Page Prefetch Requests: 8529053
L1D Same Page Prefetch Requests: 18145656
L1D ROI Sum of L1D PQ occupancy: 173562018
L1D PREFETCHES PUSHED FROM L2C: 0
L1I TOTAL     ACCESS:    8616245  HIT:    8616245  MISS:          0  HIT %:        100  MISS %:          0   MPKI: 0
L1I LOAD      ACCESS:    8616245  HIT:    8616245  MISS:          0  HIT %:        100  MISS %:          0   MPKI: 0
L1I PREFETCH  REQUESTED:          0  ISSUED:          0  USEFUL:          0  USELESS:          0
L1I USEFUL LOAD PREFETCHES:          0 PREFETCH ISSUED TO LOWER LEVEL:          0  ACCURACY: -nan
L1I TIMELY PREFETCHES:          0 LATE PREFETCHES: 0 DROPPED PREFETCHES: 0
L1I PREFETCHES SAME FILL-ORIGIN LEVEL: 0 DIFFERENT FILL-ORIGIN LEVEL: 0
L1I AVERAGE MISS LATENCY: -nan cycles
L1I RQ	ACCESS:   14907472	FORWARD:          0	MERGED:    6291228	TO_CACHE:    8616244

BTB TOTAL     ACCESS:     560941  HIT:     560936  MISS:          5  HIT %:    99.9991  MISS %: 0.000891359   MPKI: 0.0001
BTB BRANCH_DIRECT_JUMP	ACCESS:      40061  HIT:      40060  MISS:          1
BTB BRANCH_INDIRECT	ACCESS:          0  HIT:          0  MISS:          0
BTB BRANCH_CONDITIONAL	ACCESS:     520880  HIT:     520876  MISS:          4
BTB BRANCH_DIRECT_CALL	ACCESS:          0  HIT:          0  MISS:          0
BTB BRANCH_INDIRECT_CALL	ACCESS:          0  HIT:          0  MISS:          0
BTB BRANCH_RETURN	ACCESS:          0  HIT:          0  MISS:          0
BTB BRANCH_OTHER ACCESS:          0  HIT:          0  MISS:          0

L2C TOTAL     ACCESS:    1899041  HIT:     639789  MISS:    1259252  HIT %:    33.6901  MISS %:    66.3099   MPKI: 25.185
L2C LOAD      ACCESS:     369229  HIT:        452  MISS:     368777  HIT %:   0.122417  MISS %:    99.8776   MPKI: 7.37554
L2C DATA LOAD MPKI: 7.37554
L2C INSTRUCTION LOAD MPKI: 0
L2C PREFETCH  ACCESS:     874417  HIT:       5623  MISS:     868794  HIT %:   0.643057  MISS %:    99.3569   MPKI: 17.3759
AGUS PREFETCH L1 MISS: 0
L2C DATA PREFETCH MPKI: 17.3759
L2C INSTRUCTION PREFETCH MPKI: 0
L2C WRITEBACK ACCESS:     485716  HIT:     485716  MISS:          0  HIT %:        100  MISS %:          0   MPKI: 0
L2C LOAD TRANSLATION ACCESS:     127971  HIT:     111608  MISS:      16363  HIT %:    87.2135  MISS %:    12.7865   MPKI: 0.32726
L2C TRANSLATION FROM L1D PREFETCHER ACCESS:      41708  HIT:      36390  MISS:       5318  HIT %:    87.2494  MISS %:    12.7506   MPKI: 0.10636
L2C PREFETCH  REQUESTED:          0  ISSUED:          0  USEFUL:       5737  USELESS:     868744
L2C USEFUL LOAD PREFETCHES:       5737 PREFETCH ISSUED TO LOWER LEVEL:     868794  ACCURACY: 0.660341
L2C TIMELY PREFETCHES:       5737 LATE PREFETCHES: 0 DROPPED PREFETCHES: 0
L2C PREFETCHES SAME FILL-ORIGIN LEVEL: 0 DIFFERENT FILL-ORIGIN LEVEL: 0
L2C AVERAGE MISS LATENCY: 189.78 cycles
L2C RQ	ACCESS:     538908	FORWARD:          0	MERGED:          0	TO_CACHE:     538908
L2C WQ	ACCESS:     485716	FORWARD:          0	MERGED:          0	TO_CACHE:     485716
L2C PQ	ACCESS:     874417	FORWARD:          0	MERGED:          0	TO_CACHE:     874417

L2C Instructions Evicting Data 0
L2C Translations Evicting Data 21503
L2C Data Evicting Data 1216086
L2C Instructions Evicting Instructions 0
L2C Translations Evicting Instructions 0
L2C Data Evicting Instructions 0
L2C Instructions Evicting Translations 0
L2C Translations Evicting Translations 178
L2C Data Evicting Translations 21485
L2C Dense regions hint from L2: 0
PSCL5 TOTAL     ACCESS:     169629  HIT:     169629  MISS:          0  HIT %:        100  MISS %:          0   MPKI: 0
PSCL5 LOAD TRANSLATION ACCESS:     127929  HIT:     127929  MISS:          0  HIT %:        100  MISS %:          0   MPKI: 0
PSCL5 TRANSLATION FROM L1D PREFETCHER ACCESS:      41700  HIT:      41700  MISS:          0  HIT %:        100  MISS %:          0   MPKI: 0
PSCL5 PREFETCH  REQUESTED:          0  ISSUED:          0  USEFUL:          0  USELESS:          0
PSCL5 USEFUL LOAD PREFETCHES:          0 PREFETCH ISSUED TO LOWER LEVEL:          0  ACCURACY: -nan
PSCL5 TIMELY PREFETCHES:          0 LATE PREFETCHES: 0 DROPPED PREFETCHES: 0
PSCL5 PREFETCHES SAME FILL-ORIGIN LEVEL: 0 DIFFERENT FILL-ORIGIN LEVEL: 0

PSCL4 TOTAL     ACCESS:     169629  HIT:     169629  MISS:          0  HIT %:        100  MISS %:          0   MPKI: 0
PSCL4 LOAD TRANSLATION ACCESS:     127929  HIT:     127929  MISS:          0  HIT %:        100  MISS %:          0   MPKI: 0
PSCL4 TRANSLATION FROM L1D PREFETCHER ACCESS:      41700  HIT:      41700  MISS:          0  HIT %:        100  MISS %:          0   MPKI: 0
PSCL4 PREFETCH  REQUESTED:          0  ISSUED:          0  USEFUL:          0  USELESS:          0
PSCL4 USEFUL LOAD PREFETCHES:          0 PREFETCH ISSUED TO LOWER LEVEL:          0  ACCURACY: -nan
PSCL4 TIMELY PREFETCHES:          0 LATE PREFETCHES: 0 DROPPED PREFETCHES: 0
PSCL4 PREFETCHES SAME FILL-ORIGIN LEVEL: 0 DIFFERENT FILL-ORIGIN LEVEL: 0

PSCL3 TOTAL     ACCESS:     169629  HIT:     169629  MISS:          0  HIT %:        100  MISS %:          0   MPKI: 0
PSCL3 LOAD TRANSLATION ACCESS:     127929  HIT:     127929  MISS:          0  HIT %:        100  MISS %:          0   MPKI: 0
PSCL3 TRANSLATION FROM L1D PREFETCHER ACCESS:      41700  HIT:      41700  MISS:          0  HIT %:        100  MISS %:          0   MPKI: 0
PSCL3 PREFETCH  REQUESTED:          0  ISSUED:          0  USEFUL:          0  USELESS:          0
PSCL3 USEFUL LOAD PREFETCHES:          0 PREFETCH ISSUED TO LOWER LEVEL:          0  ACCURACY: -nan
PSCL3 TIMELY PREFETCHES:          0 LATE PREFETCHES: 0 DROPPED PREFETCHES: 0
PSCL3 PREFETCHES SAME FILL-ORIGIN LEVEL: 0 DIFFERENT FILL-ORIGIN LEVEL: 0

PSCL2 TOTAL     ACCESS:     169629  HIT:     169331  MISS:        298  HIT %:    99.8243  MISS %:   0.175678   MPKI: 0.00596
PSCL2 LOAD TRANSLATION ACCESS:     127937  HIT:     127639  MISS:        298  HIT %:    99.7671  MISS %:   0.232927   MPKI: 0.00596
PSCL2 TRANSLATION FROM L1D PREFETCHER ACCESS:      41692  HIT:      41692  MISS:          0  HIT %:        100  MISS %:          0   MPKI: 0
PSCL2 PREFETCH  REQUESTED:          0  ISSUED:          0  USEFUL:          0  USELESS:          0
PSCL2 USEFUL LOAD PREFETCHES:          0 PREFETCH ISSUED TO LOWER LEVEL:          0  ACCURACY: -nan
PSCL2 TIMELY PREFETCHES:          0 LATE PREFETCHES: 0 DROPPED PREFETCHES: 0
PSCL2 PREFETCHES SAME FILL-ORIGIN LEVEL: 0 DIFFERENT FILL-ORIGIN LEVEL: 0

LLC TOTAL     ACCESS:    1744769  HIT:     621950  MISS:    1122819  HIT %:    35.6466  MISS %:    64.3534   MPKI: 22.4564
LLC LOAD      ACCESS:     368777  HIT:        575  MISS:     368202  HIT %:   0.155921  MISS %:    99.8441   MPKI: 7.36404
LLC PREFETCH  ACCESS:     868794  HIT:     132337  MISS:     736457  HIT %:    15.2323  MISS %:    84.7677   MPKI: 14.7291
AGUS PREFETCH L1 MISS: 0
LLC WRITEBACK ACCESS:     485517  HIT:     485517  MISS:          0  HIT %:        100  MISS %:          0   MPKI: 0
LLC LOAD TRANSLATION ACCESS:      16363  HIT:        191  MISS:      16172  HIT %:    1.16727  MISS %:    98.8327   MPKI: 0.32344
LLC TRANSLATION FROM L1D PREFETCHER ACCESS:       5318  HIT:       3330  MISS:       1988  HIT %:    62.6175  MISS %:    37.3825   MPKI: 0.03976
LLC PREFETCH  REQUESTED:          0  ISSUED:          0  USEFUL:        400  USELESS:     740255
LLC USEFUL LOAD PREFETCHES:        400 PREFETCH ISSUED TO LOWER LEVEL:     736457  ACCURACY: 0.0543141
LLC TIMELY PREFETCHES:        400 LATE PREFETCHES: 0 DROPPED PREFETCHES: 0
LLC PREFETCHES SAME FILL-ORIGIN LEVEL: 0 DIFFERENT FILL-ORIGIN LEVEL: 0
LLC AVERAGE MISS LATENCY: 174.042 cycles
LLC RQ	ACCESS:     390458	FORWARD:          0	MERGED:          0	TO_CACHE:     390458
LLC WQ	ACCESS:     485517	FORWARD:          0	MERGED:          0	TO_CACHE:     485517
LLC PQ	ACCESS:     868794	FORWARD:          0	MERGED:          0	TO_CACHE:     868794

LLC Dense regions hint to LLC: 0

RAW hits: 84994
Loads Generated: 32010390
Loads sent to L1D: 31925394
Stores Generated: 3205648
Stores sent to L1D: 3205648
Major fault: 0 Minor fault: 257109
Allocated PAGES: 257109

stream: 
stream:times selected: 2223279
stream:pref_reqs: 2189897
stream:pref_reqs_filtered_out: 281771
stream:pref_filled: 746348
stream:pref_useful: 318140
stream:pref_late: 3357
stream:misses: 23308
stream:misses_by_poll: 0

CS: 
CS:times selected: 450785
CS:pref_reqs: 1330987
CS:pref_reqs_filtered_out: 477024
CS:pref_filled: 382928
CS:pref_useful: 264697
CS:pref_late: 0
CS:misses: 6743
CS:misses_by_poll: 353

CPLX: 
CPLX:times selected: 1469862
CPLX:pref_reqs: 2605125
CPLX:pref_reqs_filtered_out: 1249269
CPLX:pref_filled: 378844
CPLX:pref_useful: 268233
CPLX:pref_late: 1492
CPLX:misses: 72296
CPLX:misses_by_poll: 753

ISB: 
ISB:total access:42728266
ISB:times selected:24837515
ISB:canary counter:0
ISB:pref_reqs: 73895716
ISB:pref_reqs_filtered_out: 25098504
ISB:pref_filled: 387587
ISB:pref_useful: 383635
ISB:pref_late: 2
ISB:misses: 318350
ISB:misses_by_poll: 497
ISB:Stream end: 16597195
ISB:No Prediction: 17890751 41.871
ISB:No translation: 1024405311
ISB:Predictions: 23485339 54.9644

NL_L1: 
NL:times selected: 132
NL:pref_reqs: 132
NL:pref_reqs_filtered_out: 10
NL:pref_filled: 104
NL:pref_useful: 50
NL:pref_late: 0
NL:misses: 23
NL:misses_by_poll: 0

Coverage: 61.1424
total selections: 28981573
total_filled: 869836
total_useful: 588190
total_late: 4990
total_polluted: 1603
total_misses_after_warmup: 479831
conflicts: 6364169

test: 0
ISB Prefetcher final stats
Prefetcher final stats
Training Unit Size: 139
Addr table size: 1537472 1541249
Triggers: 42728266
Structural address exists: 24837515 58.129
No Prediction: 17890751 41.871
Prefetches issued: 23485339 54.9644
Stream end: 16597195
No translation: 1024405311
%Stream divergence: 33018 0.0772744
Stream divergence -- new stream: 0
A: 0
B: 0
C: 2223286
D: 2223286
E: 2223286
F: 0
G: 0

DRAM Statistics
 CHANNEL 0
 RQ ROW_BUFFER_HIT:     315501  ROW_BUFFER_MISS:     807318
 DBUS_CONGESTED:        804
 WQ ROW_BUFFER_HIT:     117188  ROW_BUFFER_MISS:     367396  FULL:          0

 AVG_CONGESTED_CYCLE: 4
 All warmup complete: 2
Channel 0 Bank busy for read cycles: 0
Channel 0 Bank busy for write cycles: 0
Channel 0
Rank 0
0banks busy for read cycles: 3014764
0banks busy for write cycles: 30551
1banks busy for read cycles: 24580751
1banks busy for write cycles: 3960298
2banks busy for read cycles: 16358717
2banks busy for write cycles: 4775897
3banks busy for read cycles: 10587808
3banks busy for write cycles: 5186933
4banks busy for read cycles: 6080253
4banks busy for write cycles: 5060328
5banks busy for read cycles: 2784737
5banks busy for write cycles: 4295568
6banks busy for read cycles: 1116552
6banks busy for write cycles: 3109416
7banks busy for read cycles: 341531
7banks busy for write cycles: 1739594
8banks busy for read cycles: 60444
8banks busy for write cycles: 654669

CPU 0 Branch Prediction Accuracy: 93.3275% MPKI: 0.80204 Average ROB Occupancy at Mispredict: 246.508
Branch types
NOT_BRANCH: 49399000 98.798%
BRANCH_DIRECT_JUMP: 40061 0.080122%
BRANCH_INDIRECT: 0 0%
BRANCH_CONDITIONAL: 560941 1.12188%
BRANCH_DIRECT_CALL: 0 0%
BRANCH_INDIRECT_CALL: 0 0%
BRANCH_RETURN: 0 0%
BRANCH_OTHER: 0 0%

DRAM PAGES: 1048576
Allocated PAGES: 257109
