
*** ChampSim Multicore Out-of-Order Simulator ***

Warmup Instructions: 50000000
Simulation Instructions: 50000000
Number of CPUs: 1
LLC sets: 2048
LLC ways: 16
Off-chip DRAM Size: 4096 MB Channels: 1 Width: 64-bit Data Rate: 6400 MT/s
CPU 0 runs ./traces/SPEC-CPU2017/649.fotonik3d_s-10881B.champsimtrace.xz
.xz
CPU 0 Bimodal branch predictor
BTB has LRU replacement policy
ITLB has LRU replacement policy
DTLB has LRU replacement policy
STLB has LRU replacement policy
L1I has LRU replacement policy
L1D has LRU replacement policy
Ideal ISB Prefetching
L2C has LRU replacement policy
LLC has LRU replacement policy
Heartbeat CPU 0 instructions: 10000002 cycles: 5240640 heartbeat IPC: 1.90816 cumulative IPC: 1.90816 (Simulation time: 0 hr 1 min 21 sec) 
Heartbeat CPU 0 instructions: 20000000 cycles: 10480884 heartbeat IPC: 1.90831 cumulative IPC: 1.90824 (Simulation time: 0 hr 2 min 49 sec) 
Heartbeat CPU 0 instructions: 30000003 cycles: 15737188 heartbeat IPC: 1.90248 cumulative IPC: 1.90631 (Simulation time: 0 hr 4 min 13 sec) 
Heartbeat CPU 0 instructions: 40000000 cycles: 20977474 heartbeat IPC: 1.90829 cumulative IPC: 1.90681 (Simulation time: 0 hr 5 min 35 sec) 
Heartbeat CPU 0 instructions: 50000000 cycles: 26204305 heartbeat IPC: 1.91321 cumulative IPC: 1.90808 (Simulation time: 0 hr 6 min 57 sec) 

Warmup complete CPU 0 instructions: 50000004 cycles: 26204306 (Simulation time: 0 hr 6 min 57 sec) 

Heartbeat CPU 0 instructions: 60000000 cycles: 48539091 heartbeat IPC: 0.447732 cumulative IPC: 0.447732 (Simulation time: 0 hr 9 min 5 sec) 
Heartbeat CPU 0 instructions: 70000002 cycles: 71044204 heartbeat IPC: 0.444344 cumulative IPC: 0.446031 (Simulation time: 0 hr 10 min 52 sec) 
Heartbeat CPU 0 instructions: 80000000 cycles: 93264791 heartbeat IPC: 0.450033 cumulative IPC: 0.447357 (Simulation time: 0 hr 12 min 36 sec) 
Heartbeat CPU 0 instructions: 90000003 cycles: 115546502 heartbeat IPC: 0.448799 cumulative IPC: 0.447717 (Simulation time: 0 hr 13 min 52 sec) 
Heartbeat CPU 0 instructions: 100000000 cycles: 138045204 heartbeat IPC: 0.44447 cumulative IPC: 0.447064 (Simulation time: 0 hr 15 min 2 sec) 
Finished CPU 0 instructions: 50000001 cycles: 111840938 cumulative IPC: 0.447064 (Simulation time: 0 hr 15 min 2 sec) 

ChampSim completed all CPUs

Region of Interest Statistics

CPU 0 cumulative IPC: 0.447064 instructions: 50000001 cycles: 111840938
ITLB TOTAL     ACCESS:    7934583  HIT:    7934583  MISS:          0  HIT %:        100  MISS %:          0   MPKI: 0
ITLB LOAD TRANSLATION ACCESS:    7934583  HIT:    7934583  MISS:          0  HIT %:        100  MISS %:          0   MPKI: 0
ITLB PREFETCH  REQUESTED:          0  ISSUED:          0  USEFUL:          0  USELESS:          0
ITLB USEFUL LOAD PREFETCHES:          0 PREFETCH ISSUED TO LOWER LEVEL:          0  ACCURACY: -nan
ITLB TIMELY PREFETCHES:          0 LATE PREFETCHES: 0 DROPPED PREFETCHES: 0
ITLB PREFETCHES SAME FILL-ORIGIN LEVEL: 0 DIFFERENT FILL-ORIGIN LEVEL: 0
ITLB AVERAGE MISS LATENCY: -nan cycles
ITLB RQ	ACCESS:    8833473	FORWARD:          0	MERGED:     898891	TO_CACHE:    7934582

DTLB TOTAL     ACCESS:   21666311  HIT:   21400763  MISS:     265548  HIT %:    98.7744  MISS %:    1.22563   MPKI: 5.31096
DTLB LOAD TRANSLATION ACCESS:   21666311  HIT:   21400763  MISS:     265548  HIT %:    98.7744  MISS %:    1.22563   MPKI: 5.31096
DTLB PREFETCH  REQUESTED:          0  ISSUED:          0  USEFUL:          0  USELESS:          0
DTLB USEFUL LOAD PREFETCHES:          0 PREFETCH ISSUED TO LOWER LEVEL:          0  ACCURACY: -nan
DTLB TIMELY PREFETCHES:          0 LATE PREFETCHES: 0 DROPPED PREFETCHES: 0
DTLB PREFETCHES SAME FILL-ORIGIN LEVEL: 0 DIFFERENT FILL-ORIGIN LEVEL: 0
DTLB AVERAGE MISS LATENCY: 158.664 cycles
DTLB RQ	ACCESS:   24066245	FORWARD:          0	MERGED:    2385691	TO_CACHE:   21680554

STLB TOTAL     ACCESS:     265548  HIT:      95764  MISS:     169784  HIT %:    36.0628  MISS %:    63.9372   MPKI: 3.39568
STLB LOAD TRANSLATION ACCESS:     265548  HIT:      95764  MISS:     169784  HIT %:    36.0628  MISS %:    63.9372   MPKI: 3.39568
STLB PREFETCH  REQUESTED:          0  ISSUED:          0  USEFUL:          0  USELESS:          0
STLB USEFUL LOAD PREFETCHES:          0 PREFETCH ISSUED TO LOWER LEVEL:          0  ACCURACY: -nan
STLB TIMELY PREFETCHES:          0 LATE PREFETCHES: 0 DROPPED PREFETCHES: 0
STLB PREFETCHES SAME FILL-ORIGIN LEVEL: 0 DIFFERENT FILL-ORIGIN LEVEL: 0
STLB AVERAGE MISS LATENCY: 215.678 cycles
STLB RQ	ACCESS:     265548	FORWARD:          0	MERGED:          0	TO_CACHE:     265548

STLB Hit, L1D data hit: 0
STLB Hit, L2C data hit: 0
STLB Hit, LLC data hit: 0
STLB Hit, LLC data miss: 0
STLB STLB hints to L2: 0
L1D TOTAL     ACCESS:   23820297  HIT:   22858297  MISS:     962000  HIT %:    95.9614  MISS %:    4.03857   MPKI: 19.24
L1D LOAD      ACCESS:   20614649  HIT:   19652649  MISS:     962000  HIT %:    95.3334  MISS %:    4.66658   MPKI: 19.24
L1D RFO       ACCESS:    3205648  HIT:    3205648  MISS:          0  HIT %:        100  MISS %:          0   MPKI: 0
L1D PREFETCH  REQUESTED:          0  ISSUED:          0  USEFUL:          0  USELESS:          0
L1D USEFUL LOAD PREFETCHES:          0 PREFETCH ISSUED TO LOWER LEVEL:          0  ACCURACY: -nan
L1D TIMELY PREFETCHES:          0 LATE PREFETCHES: 0 DROPPED PREFETCHES: 0
L1D PREFETCHES SAME FILL-ORIGIN LEVEL: 0 DIFFERENT FILL-ORIGIN LEVEL: 0
L1D AVERAGE MISS LATENCY: 188.917 cycles
L1D RQ	ACCESS:   31922054	FORWARD:          0	MERGED:   11053619	TO_CACHE:   20860597
L1D WQ	ACCESS:    3205648	FORWARD:       7838	MERGED:          0	TO_CACHE:    3205648

L1D UNIQUE REGIONS ACCESSED: 0
L1D REGIONS CONFLICTS: 0
L1D Cross Page Prefetch Requests: 0
L1D Same Page Prefetch Requests: 0
L1D ROI Sum of L1D PQ occupancy: 0
L1D PREFETCHES PUSHED FROM L2C: 0
L1I TOTAL     ACCESS:    8833474  HIT:    8833474  MISS:          0  HIT %:        100  MISS %:          0   MPKI: 0
L1I LOAD      ACCESS:    8833474  HIT:    8833474  MISS:          0  HIT %:        100  MISS %:          0   MPKI: 0
L1I PREFETCH  REQUESTED:          0  ISSUED:          0  USEFUL:          0  USELESS:          0
L1I USEFUL LOAD PREFETCHES:          0 PREFETCH ISSUED TO LOWER LEVEL:          0  ACCURACY: -nan
L1I TIMELY PREFETCHES:          0 LATE PREFETCHES: 0 DROPPED PREFETCHES: 0
L1I PREFETCHES SAME FILL-ORIGIN LEVEL: 0 DIFFERENT FILL-ORIGIN LEVEL: 0
L1I AVERAGE MISS LATENCY: -nan cycles
L1I RQ	ACCESS:   15546865	FORWARD:          0	MERGED:    6713392	TO_CACHE:    8833473

BTB TOTAL     ACCESS:     560941  HIT:     560936  MISS:          5  HIT %:    99.9991  MISS %: 0.000891359   MPKI: 0.0001
BTB BRANCH_DIRECT_JUMP	ACCESS:      40061  HIT:      40060  MISS:          1
BTB BRANCH_INDIRECT	ACCESS:          0  HIT:          0  MISS:          0
BTB BRANCH_CONDITIONAL	ACCESS:     520880  HIT:     520876  MISS:          4
BTB BRANCH_DIRECT_CALL	ACCESS:          0  HIT:          0  MISS:          0
BTB BRANCH_INDIRECT_CALL	ACCESS:          0  HIT:          0  MISS:          0
BTB BRANCH_RETURN	ACCESS:          0  HIT:          0  MISS:          0
BTB BRANCH_OTHER ACCESS:          0  HIT:          0  MISS:          0

L2C TOTAL     ACCESS:    1784909  HIT:     800911  MISS:     983998  HIT %:    44.8713  MISS %:    55.1287   MPKI: 19.68
L2C LOAD      ACCESS:     962000  HIT:     165469  MISS:     796531  HIT %:    17.2005  MISS %:    82.7995   MPKI: 15.9306
L2C DATA LOAD MPKI: 15.9306
L2C INSTRUCTION LOAD MPKI: 0
L2C PREFETCH  ACCESS:     167337  HIT:       1499  MISS:     165838  HIT %:   0.895797  MISS %:    99.1042   MPKI: 3.31676
AGUS PREFETCH L1 MISS: 0
L2C DATA PREFETCH MPKI: 3.31676
L2C INSTRUCTION PREFETCH MPKI: 0
L2C WRITEBACK ACCESS:     485738  HIT:     485738  MISS:          0  HIT %:        100  MISS %:          0   MPKI: 0
L2C LOAD TRANSLATION ACCESS:     169834  HIT:     148205  MISS:      21629  HIT %:    87.2646  MISS %:    12.7354   MPKI: 0.43258
L2C PREFETCH  REQUESTED:     168230  ISSUED:     168227  USEFUL:     165463  USELESS:        397
L2C USEFUL LOAD PREFETCHES:     165463 PREFETCH ISSUED TO LOWER LEVEL:     165937  ACCURACY: 99.7143
L2C TIMELY PREFETCHES:     165463 LATE PREFETCHES: 99 DROPPED PREFETCHES: 0
L2C PREFETCHES SAME FILL-ORIGIN LEVEL: 165937 DIFFERENT FILL-ORIGIN LEVEL: 0
L2C AVERAGE MISS LATENCY: 173.034 cycles
L2C RQ	ACCESS:    1131833	FORWARD:          0	MERGED:          0	TO_CACHE:    1131833
L2C WQ	ACCESS:     485738	FORWARD:          0	MERGED:          0	TO_CACHE:     485738
L2C PQ	ACCESS:     168227	FORWARD:          0	MERGED:        396	TO_CACHE:     167831

L2C Instructions Evicting Data 0
L2C Translations Evicting Data 21489
L2C Data Evicting Data 940882
L2C Instructions Evicting Instructions 0
L2C Translations Evicting Instructions 0
L2C Data Evicting Instructions 0
L2C Instructions Evicting Translations 0
L2C Translations Evicting Translations 140
L2C Data Evicting Translations 21487
L2C Dense regions hint from L2: 0
PSCL5 TOTAL     ACCESS:     169784  HIT:     169784  MISS:          0  HIT %:        100  MISS %:          0   MPKI: 0
PSCL5 LOAD TRANSLATION ACCESS:     169784  HIT:     169784  MISS:          0  HIT %:        100  MISS %:          0   MPKI: 0
PSCL5 PREFETCH  REQUESTED:          0  ISSUED:          0  USEFUL:          0  USELESS:          0
PSCL5 USEFUL LOAD PREFETCHES:          0 PREFETCH ISSUED TO LOWER LEVEL:          0  ACCURACY: -nan
PSCL5 TIMELY PREFETCHES:          0 LATE PREFETCHES: 0 DROPPED PREFETCHES: 0
PSCL5 PREFETCHES SAME FILL-ORIGIN LEVEL: 0 DIFFERENT FILL-ORIGIN LEVEL: 0

PSCL4 TOTAL     ACCESS:     169784  HIT:     169784  MISS:          0  HIT %:        100  MISS %:          0   MPKI: 0
PSCL4 LOAD TRANSLATION ACCESS:     169784  HIT:     169784  MISS:          0  HIT %:        100  MISS %:          0   MPKI: 0
PSCL4 PREFETCH  REQUESTED:          0  ISSUED:          0  USEFUL:          0  USELESS:          0
PSCL4 USEFUL LOAD PREFETCHES:          0 PREFETCH ISSUED TO LOWER LEVEL:          0  ACCURACY: -nan
PSCL4 TIMELY PREFETCHES:          0 LATE PREFETCHES: 0 DROPPED PREFETCHES: 0
PSCL4 PREFETCHES SAME FILL-ORIGIN LEVEL: 0 DIFFERENT FILL-ORIGIN LEVEL: 0

PSCL3 TOTAL     ACCESS:     169784  HIT:     169784  MISS:          0  HIT %:        100  MISS %:          0   MPKI: 0
PSCL3 LOAD TRANSLATION ACCESS:     169784  HIT:     169784  MISS:          0  HIT %:        100  MISS %:          0   MPKI: 0
PSCL3 PREFETCH  REQUESTED:          0  ISSUED:          0  USEFUL:          0  USELESS:          0
PSCL3 USEFUL LOAD PREFETCHES:          0 PREFETCH ISSUED TO LOWER LEVEL:          0  ACCURACY: -nan
PSCL3 TIMELY PREFETCHES:          0 LATE PREFETCHES: 0 DROPPED PREFETCHES: 0
PSCL3 PREFETCHES SAME FILL-ORIGIN LEVEL: 0 DIFFERENT FILL-ORIGIN LEVEL: 0

PSCL2 TOTAL     ACCESS:     169784  HIT:     169486  MISS:        298  HIT %:    99.8245  MISS %:   0.175517   MPKI: 0.00596
PSCL2 LOAD TRANSLATION ACCESS:     169784  HIT:     169486  MISS:        298  HIT %:    99.8245  MISS %:   0.175517   MPKI: 0.00596
PSCL2 PREFETCH  REQUESTED:          0  ISSUED:          0  USEFUL:          0  USELESS:          0
PSCL2 USEFUL LOAD PREFETCHES:          0 PREFETCH ISSUED TO LOWER LEVEL:          0  ACCURACY: -nan
PSCL2 TIMELY PREFETCHES:          0 LATE PREFETCHES: 0 DROPPED PREFETCHES: 0
PSCL2 PREFETCHES SAME FILL-ORIGIN LEVEL: 0 DIFFERENT FILL-ORIGIN LEVEL: 0

LLC TOTAL     ACCESS:    1469705  HIT:     666601  MISS:     803104  HIT %:    45.3561  MISS %:    54.6439   MPKI: 16.0621
LLC LOAD      ACCESS:     796432  HIT:      27038  MISS:     769394  HIT %:    3.39489  MISS %:    96.6051   MPKI: 15.3879
LLC PREFETCH  ACCESS:     165937  HIT:     148867  MISS:      17070  HIT %:     89.713  MISS %:     10.287   MPKI: 0.3414
AGUS PREFETCH L1 MISS: 0
LLC WRITEBACK ACCESS:     485707  HIT:     485707  MISS:          0  HIT %:        100  MISS %:          0   MPKI: 0
LLC LOAD TRANSLATION ACCESS:      21629  HIT:       4989  MISS:      16640  HIT %:    23.0663  MISS %:    76.9337   MPKI: 0.3328
LLC PREFETCH  REQUESTED:          0  ISSUED:          0  USEFUL:        620  USELESS:      16441
LLC USEFUL LOAD PREFETCHES:        620 PREFETCH ISSUED TO LOWER LEVEL:      17070  ACCURACY: 3.6321
LLC TIMELY PREFETCHES:        620 LATE PREFETCHES: 0 DROPPED PREFETCHES: 0
LLC PREFETCHES SAME FILL-ORIGIN LEVEL: 0 DIFFERENT FILL-ORIGIN LEVEL: 0
LLC AVERAGE MISS LATENCY: 169.106 cycles
LLC RQ	ACCESS:     818060	FORWARD:          0	MERGED:          0	TO_CACHE:     818060
LLC WQ	ACCESS:     485707	FORWARD:          0	MERGED:          0	TO_CACHE:     485707
LLC PQ	ACCESS:     165937	FORWARD:          0	MERGED:          0	TO_CACHE:     165937

LLC Dense regions hint to LLC: 0

RAW hits: 88333
Loads Generated: 32010388
Loads sent to L1D: 31922054
Stores Generated: 3205648
Stores sent to L1D: 3205648
Major fault: 0 Minor fault: 257109
Allocated PAGES: 257109
Prefetcher final stats
Training Unit Size: 48
Addr table size: 1537462 1537462


Triggers: 1592761
No Prediction: 1539414 96.6507
Stream end: 12847
No translation: 12719826 798.602
Predictions: 335986 21.0946


Stream divergence: 20700 1.29963
Stream divergence -- new stream: 0

DRAM Statistics
 CHANNEL 0
 RQ ROW_BUFFER_HIT:     260241  ROW_BUFFER_MISS:     542863
 DBUS_CONGESTED:        695
 WQ ROW_BUFFER_HIT:     137823  ROW_BUFFER_MISS:     347759  FULL:          0

 AVG_CONGESTED_CYCLE: 5
 All warmup complete: 2
Channel 0 Bank busy for read cycles: 0
Channel 0 Bank busy for write cycles: 0
Channel 0
Rank 0
0banks busy for read cycles: 8618421
0banks busy for write cycles: 99778
1banks busy for read cycles: 37333642
1banks busy for write cycles: 14939943
2banks busy for read cycles: 15711832
2banks busy for write cycles: 13221084
3banks busy for read cycles: 5449181
3banks busy for write cycles: 8392907
4banks busy for read cycles: 1701238
4banks busy for write cycles: 4052512
5banks busy for read cycles: 416049
5banks busy for write cycles: 1431734
6banks busy for read cycles: 67662
6banks busy for write cycles: 346985
7banks busy for read cycles: 6828
7banks busy for write cycles: 47953
8banks busy for read cycles: 335
8banks busy for write cycles: 2855

CPU 0 Branch Prediction Accuracy: 93.3275% MPKI: 0.80204 Average ROB Occupancy at Mispredict: 249.374
Branch types
NOT_BRANCH: 49399000 98.798%
BRANCH_DIRECT_JUMP: 40061 0.080122%
BRANCH_INDIRECT: 0 0%
BRANCH_CONDITIONAL: 560941 1.12188%
BRANCH_DIRECT_CALL: 0 0%
BRANCH_INDIRECT_CALL: 0 0%
BRANCH_RETURN: 0 0%
BRANCH_OTHER: 0 0%

DRAM PAGES: 1048576
Allocated PAGES: 257109
