
*** ChampSim Multicore Out-of-Order Simulator ***

Warmup Instructions: 50000000
Simulation Instructions: 50000000
Number of CPUs: 1
LLC sets: 2048
LLC ways: 16
Off-chip DRAM Size: 4096 MB Channels: 1 Width: 64-bit Data Rate: 6400 MT/s
CPU 0 runs ./traces/SPEC-CPU2017/649.fotonik3d_s-10881B.champsimtrace.xz
.xz
CPU 0 Bimodal branch predictor
BTB has LRU replacement policy
ITLB has LRU replacement policy
DTLB has LRU replacement policy
STLB has LRU replacement policy
L1I has LRU replacement policy
L1D has LRU replacement policy
L2C has LRU replacement policy
LLC has LRU replacement policy
Heartbeat CPU 0 instructions: 10000002 cycles: 5238177 heartbeat IPC: 1.90906 cumulative IPC: 1.90906 (Simulation time: 0 hr 14 min 3 sec) 
Heartbeat CPU 0 instructions: 20000000 cycles: 10482717 heartbeat IPC: 1.90674 cumulative IPC: 1.9079 (Simulation time: 0 hr 36 min 10 sec) 
Heartbeat CPU 0 instructions: 30000000 cycles: 15739358 heartbeat IPC: 1.90236 cumulative IPC: 1.90605 (Simulation time: 0 hr 50 min 8 sec) 
Heartbeat CPU 0 instructions: 40000000 cycles: 20979502 heartbeat IPC: 1.90834 cumulative IPC: 1.90662 (Simulation time: 1 hr 3 min 48 sec) 
Heartbeat CPU 0 instructions: 50000000 cycles: 26205139 heartbeat IPC: 1.91364 cumulative IPC: 1.90802 (Simulation time: 1 hr 17 min 42 sec) 

Warmup complete CPU 0 instructions: 50000004 cycles: 26205140 (Simulation time: 1 hr 17 min 42 sec) 

Heartbeat CPU 0 instructions: 60000000 cycles: 44450931 heartbeat IPC: 0.548072 cumulative IPC: 0.548071 (Simulation time: 1 hr 24 min 2 sec) 
Heartbeat CPU 0 instructions: 70000002 cycles: 63151018 heartbeat IPC: 0.534757 cumulative IPC: 0.541332 (Simulation time: 1 hr 30 min 43 sec) 
Heartbeat CPU 0 instructions: 80000000 cycles: 81626109 heartbeat IPC: 0.541269 cumulative IPC: 0.541311 (Simulation time: 1 hr 37 min 27 sec) 
Heartbeat CPU 0 instructions: 90000003 cycles: 99982056 heartbeat IPC: 0.544783 cumulative IPC: 0.542175 (Simulation time: 1 hr 44 min 13 sec) 
Heartbeat CPU 0 instructions: 100000000 cycles: 118200420 heartbeat IPC: 0.548897 cumulative IPC: 0.543506 (Simulation time: 1 hr 51 min 1 sec) 
Finished CPU 0 instructions: 50000001 cycles: 91995320 cumulative IPC: 0.543506 (Simulation time: 1 hr 51 min 1 sec) 

ChampSim completed all CPUs

Region of Interest Statistics

CPU 0 cumulative IPC: 0.543506 instructions: 50000001 cycles: 91995320
ITLB TOTAL     ACCESS:    7677921  HIT:    7677921  MISS:          0  HIT %:        100  MISS %:          0   MPKI: 0
ITLB LOAD TRANSLATION ACCESS:    7677921  HIT:    7677921  MISS:          0  HIT %:        100  MISS %:          0   MPKI: 0
ITLB PREFETCH  REQUESTED:          0  ISSUED:          0  USEFUL:          0  USELESS:          0
ITLB USEFUL LOAD PREFETCHES:          0 PREFETCH ISSUED TO LOWER LEVEL:          0  ACCURACY: -nan
ITLB TIMELY PREFETCHES:          0 LATE PREFETCHES: 0 DROPPED PREFETCHES: 0
ITLB PREFETCHES SAME FILL-ORIGIN LEVEL: 0 DIFFERENT FILL-ORIGIN LEVEL: 0
ITLB AVERAGE MISS LATENCY: -nan cycles
ITLB RQ	ACCESS:    8612767	FORWARD:          0	MERGED:     934847	TO_CACHE:    7677920

DTLB TOTAL     ACCESS:   21339491  HIT:   21074391  MISS:     265100  HIT %:    98.7577  MISS %:     1.2423   MPKI: 5.302
DTLB LOAD TRANSLATION ACCESS:   21339491  HIT:   21074391  MISS:     265100  HIT %:    98.7577  MISS %:     1.2423   MPKI: 5.302
DTLB PREFETCH  REQUESTED:          0  ISSUED:          0  USEFUL:          0  USELESS:          0
DTLB USEFUL LOAD PREFETCHES:          0 PREFETCH ISSUED TO LOWER LEVEL:          0  ACCURACY: -nan
DTLB TIMELY PREFETCHES:          0 LATE PREFETCHES: 0 DROPPED PREFETCHES: 0
DTLB PREFETCHES SAME FILL-ORIGIN LEVEL: 0 DIFFERENT FILL-ORIGIN LEVEL: 0
DTLB AVERAGE MISS LATENCY: 130.523 cycles
DTLB RQ	ACCESS:   23842254	FORWARD:          0	MERGED:    2488714	TO_CACHE:   21353540

STLB TOTAL     ACCESS:    2640038  HIT:    2470719  MISS:     169319  HIT %:    93.5865  MISS %:    6.41351   MPKI: 3.38638
STLB LOAD TRANSLATION ACCESS:     265100  HIT:     137151  MISS:     127949  HIT %:    51.7356  MISS %:    48.2644   MPKI: 2.55898
STLB TRANSLATION FROM L1D PREFETCHER ACCESS:    2374938  HIT:    2333568  MISS:      41370  HIT %:    98.2581  MISS %:    1.74194   MPKI: 0.8274
STLB PREFETCH  REQUESTED:          0  ISSUED:          0  USEFUL:      41368  USELESS:          2
STLB USEFUL LOAD PREFETCHES:      41368 PREFETCH ISSUED TO LOWER LEVEL:          0  ACCURACY: inf
STLB TIMELY PREFETCHES:      41368 LATE PREFETCHES: 0 DROPPED PREFETCHES: 0
STLB PREFETCHES SAME FILL-ORIGIN LEVEL: 0 DIFFERENT FILL-ORIGIN LEVEL: 0
STLB AVERAGE MISS LATENCY: 194.286 cycles
STLB RQ	ACCESS:    4301143	FORWARD:          0	MERGED:    1660870	TO_CACHE:    2640273

STLB Hit, L1D data hit: 0
STLB Hit, L2C data hit: 0
STLB Hit, LLC data hit: 0
STLB Hit, LLC data miss: 0
STLB STLB hints to L2: 0
L1D TOTAL     ACCESS:   27718714  HIT:   26389420  MISS:    1329294  HIT %:    95.2043  MISS %:    4.79566   MPKI: 26.5859
L1D LOAD      ACCESS:   20539931  HIT:   20196324  MISS:     343607  HIT %:    98.3271  MISS %:    1.67287   MPKI: 6.87214
L1D RFO       ACCESS:    3205648  HIT:    3205648  MISS:          0  HIT %:        100  MISS %:          0   MPKI: 0
L1D PREFETCH  ACCESS:    3973135  HIT:    2987448  MISS:     985687  HIT %:    75.1912  MISS %:    24.8088   MPKI: 19.7137
AGUS PREFETCH L1 MISS: 0
L1D PREFETCH  REQUESTED:    9299917  ISSUED:    8072183  USEFUL:     618393  USELESS:     367308
L1D USEFUL LOAD PREFETCHES:     618393 PREFETCH ISSUED TO LOWER LEVEL:     991745  ACCURACY: 62.354
L1D TIMELY PREFETCHES:     618393 LATE PREFETCHES: 6058 DROPPED PREFETCHES: 0
L1D PREFETCHES SAME FILL-ORIGIN LEVEL: 991745 DIFFERENT FILL-ORIGIN LEVEL: 0
L1D AVERAGE MISS LATENCY: 219.137 cycles
L1D RQ	ACCESS:   31925519	FORWARD:          0	MERGED:   11280753	TO_CACHE:   20636606
L1D WQ	ACCESS:    3205648	FORWARD:       8160	MERGED:          0	TO_CACHE:    3205648
L1D PQ	ACCESS:    4036140	FORWARD:          0	MERGED:         97	TO_CACHE:    4036043

L1D UNIQUE REGIONS ACCESSED: 0
L1D REGIONS CONFLICTS: 0
L1D Cross Page Prefetch Requests: 2812782
L1D Same Page Prefetch Requests: 5244628
L1D ROI Sum of L1D PQ occupancy: 68442602
L1D PREFETCHES PUSHED FROM L2C: 0
L1I TOTAL     ACCESS:    8612768  HIT:    8612768  MISS:          0  HIT %:        100  MISS %:          0   MPKI: 0
L1I LOAD      ACCESS:    8612768  HIT:    8612768  MISS:          0  HIT %:        100  MISS %:          0   MPKI: 0
L1I PREFETCH  REQUESTED:          0  ISSUED:          0  USEFUL:          0  USELESS:          0
L1I USEFUL LOAD PREFETCHES:          0 PREFETCH ISSUED TO LOWER LEVEL:          0  ACCURACY: -nan
L1I TIMELY PREFETCHES:          0 LATE PREFETCHES: 0 DROPPED PREFETCHES: 0
L1I PREFETCHES SAME FILL-ORIGIN LEVEL: 0 DIFFERENT FILL-ORIGIN LEVEL: 0
L1I AVERAGE MISS LATENCY: -nan cycles
L1I RQ	ACCESS:   14854714	FORWARD:          0	MERGED:    6241947	TO_CACHE:    8612767

BTB TOTAL     ACCESS:     560941  HIT:     560936  MISS:          5  HIT %:    99.9991  MISS %: 0.000891359   MPKI: 0.0001
BTB BRANCH_DIRECT_JUMP	ACCESS:      40061  HIT:      40060  MISS:          1
BTB BRANCH_INDIRECT	ACCESS:          0  HIT:          0  MISS:          0
BTB BRANCH_CONDITIONAL	ACCESS:     520880  HIT:     520876  MISS:          4
BTB BRANCH_DIRECT_CALL	ACCESS:          0  HIT:          0  MISS:          0
BTB BRANCH_INDIRECT_CALL	ACCESS:          0  HIT:          0  MISS:          0
BTB BRANCH_RETURN	ACCESS:          0  HIT:          0  MISS:          0
BTB BRANCH_OTHER ACCESS:          0  HIT:          0  MISS:          0

L2C TOTAL     ACCESS:    1984388  HIT:     652033  MISS:    1332355  HIT %:    32.8581  MISS %:    67.1419   MPKI: 26.6471
L2C LOAD      ACCESS:     337549  HIT:       1430  MISS:     336119  HIT %:   0.423642  MISS %:    99.5764   MPKI: 6.72238
L2C DATA LOAD MPKI: 6.72238
L2C INSTRUCTION LOAD MPKI: 0
L2C PREFETCH  ACCESS:     991745  HIT:      17068  MISS:     974677  HIT %:    1.72101  MISS %:     98.279   MPKI: 19.4935
AGUS PREFETCH L1 MISS: 0
L2C DATA PREFETCH MPKI: 19.4935
L2C INSTRUCTION PREFETCH MPKI: 0
L2C WRITEBACK ACCESS:     485728  HIT:     485728  MISS:          0  HIT %:        100  MISS %:          0   MPKI: 0
L2C LOAD TRANSLATION ACCESS:     127994  HIT:     111613  MISS:      16381  HIT %:    87.2017  MISS %:    12.7983   MPKI: 0.32762
L2C TRANSLATION FROM L1D PREFETCHER ACCESS:      41372  HIT:      36194  MISS:       5178  HIT %:    87.4843  MISS %:    12.5157   MPKI: 0.10356
L2C PREFETCH  REQUESTED:          0  ISSUED:          0  USEFUL:       6600  USELESS:     973421
L2C USEFUL LOAD PREFETCHES:       6600 PREFETCH ISSUED TO LOWER LEVEL:     974677  ACCURACY: 0.677147
L2C TIMELY PREFETCHES:       6600 LATE PREFETCHES: 0 DROPPED PREFETCHES: 0
L2C PREFETCHES SAME FILL-ORIGIN LEVEL: 0 DIFFERENT FILL-ORIGIN LEVEL: 0
L2C AVERAGE MISS LATENCY: 194.669 cycles
L2C RQ	ACCESS:     506915	FORWARD:          0	MERGED:          0	TO_CACHE:     506915
L2C WQ	ACCESS:     485728	FORWARD:          0	MERGED:          0	TO_CACHE:     485728
L2C PQ	ACCESS:     991745	FORWARD:          0	MERGED:          0	TO_CACHE:     991745

L2C Instructions Evicting Data 0
L2C Translations Evicting Data 21372
L2C Data Evicting Data 1289434
L2C Instructions Evicting Instructions 0
L2C Translations Evicting Instructions 0
L2C Data Evicting Instructions 0
L2C Instructions Evicting Translations 0
L2C Translations Evicting Translations 187
L2C Data Evicting Translations 21362
L2C Dense regions hint from L2: 0
PSCL5 TOTAL     ACCESS:     169319  HIT:     169319  MISS:          0  HIT %:        100  MISS %:          0   MPKI: 0
PSCL5 LOAD TRANSLATION ACCESS:     127949  HIT:     127949  MISS:          0  HIT %:        100  MISS %:          0   MPKI: 0
PSCL5 TRANSLATION FROM L1D PREFETCHER ACCESS:      41370  HIT:      41370  MISS:          0  HIT %:        100  MISS %:          0   MPKI: 0
PSCL5 PREFETCH  REQUESTED:          0  ISSUED:          0  USEFUL:          0  USELESS:          0
PSCL5 USEFUL LOAD PREFETCHES:          0 PREFETCH ISSUED TO LOWER LEVEL:          0  ACCURACY: -nan
PSCL5 TIMELY PREFETCHES:          0 LATE PREFETCHES: 0 DROPPED PREFETCHES: 0
PSCL5 PREFETCHES SAME FILL-ORIGIN LEVEL: 0 DIFFERENT FILL-ORIGIN LEVEL: 0

PSCL4 TOTAL     ACCESS:     169319  HIT:     169319  MISS:          0  HIT %:        100  MISS %:          0   MPKI: 0
PSCL4 LOAD TRANSLATION ACCESS:     127949  HIT:     127949  MISS:          0  HIT %:        100  MISS %:          0   MPKI: 0
PSCL4 TRANSLATION FROM L1D PREFETCHER ACCESS:      41370  HIT:      41370  MISS:          0  HIT %:        100  MISS %:          0   MPKI: 0
PSCL4 PREFETCH  REQUESTED:          0  ISSUED:          0  USEFUL:          0  USELESS:          0
PSCL4 USEFUL LOAD PREFETCHES:          0 PREFETCH ISSUED TO LOWER LEVEL:          0  ACCURACY: -nan
PSCL4 TIMELY PREFETCHES:          0 LATE PREFETCHES: 0 DROPPED PREFETCHES: 0
PSCL4 PREFETCHES SAME FILL-ORIGIN LEVEL: 0 DIFFERENT FILL-ORIGIN LEVEL: 0

PSCL3 TOTAL     ACCESS:     169319  HIT:     169319  MISS:          0  HIT %:        100  MISS %:          0   MPKI: 0
PSCL3 LOAD TRANSLATION ACCESS:     127949  HIT:     127949  MISS:          0  HIT %:        100  MISS %:          0   MPKI: 0
PSCL3 TRANSLATION FROM L1D PREFETCHER ACCESS:      41370  HIT:      41370  MISS:          0  HIT %:        100  MISS %:          0   MPKI: 0
PSCL3 PREFETCH  REQUESTED:          0  ISSUED:          0  USEFUL:          0  USELESS:          0
PSCL3 USEFUL LOAD PREFETCHES:          0 PREFETCH ISSUED TO LOWER LEVEL:          0  ACCURACY: -nan
PSCL3 TIMELY PREFETCHES:          0 LATE PREFETCHES: 0 DROPPED PREFETCHES: 0
PSCL3 PREFETCHES SAME FILL-ORIGIN LEVEL: 0 DIFFERENT FILL-ORIGIN LEVEL: 0

PSCL2 TOTAL     ACCESS:     169319  HIT:     169024  MISS:        295  HIT %:    99.8258  MISS %:   0.174227   MPKI: 0.0059
PSCL2 LOAD TRANSLATION ACCESS:     127951  HIT:     127656  MISS:        295  HIT %:    99.7694  MISS %:   0.230557   MPKI: 0.0059
PSCL2 TRANSLATION FROM L1D PREFETCHER ACCESS:      41368  HIT:      41368  MISS:          0  HIT %:        100  MISS %:          0   MPKI: 0
PSCL2 PREFETCH  REQUESTED:          0  ISSUED:          0  USEFUL:          0  USELESS:          0
PSCL2 USEFUL LOAD PREFETCHES:          0 PREFETCH ISSUED TO LOWER LEVEL:          0  ACCURACY: -nan
PSCL2 TIMELY PREFETCHES:          0 LATE PREFETCHES: 0 DROPPED PREFETCHES: 0
PSCL2 PREFETCHES SAME FILL-ORIGIN LEVEL: 0 DIFFERENT FILL-ORIGIN LEVEL: 0

LLC TOTAL     ACCESS:    1817982  HIT:     615742  MISS:    1202240  HIT %:    33.8695  MISS %:    66.1305   MPKI: 24.0448
LLC LOAD      ACCESS:     336119  HIT:       6241  MISS:     329878  HIT %:    1.85678  MISS %:    98.1432   MPKI: 6.59756
LLC PREFETCH  ACCESS:     974677  HIT:     120897  MISS:     853780  HIT %:    12.4038  MISS %:    87.5962   MPKI: 17.0756
AGUS PREFETCH L1 MISS: 0
LLC WRITEBACK ACCESS:     485627  HIT:     485627  MISS:          0  HIT %:        100  MISS %:          0   MPKI: 0
LLC LOAD TRANSLATION ACCESS:      16381  HIT:        178  MISS:      16203  HIT %:    1.08662  MISS %:    98.9134   MPKI: 0.32406
LLC TRANSLATION FROM L1D PREFETCHER ACCESS:       5178  HIT:       2799  MISS:       2379  HIT %:    54.0556  MISS %:    45.9444   MPKI: 0.04758
LLC PREFETCH  REQUESTED:          0  ISSUED:          0  USEFUL:       5963  USELESS:     851000
LLC USEFUL LOAD PREFETCHES:       5963 PREFETCH ISSUED TO LOWER LEVEL:     853780  ACCURACY: 0.698423
LLC TIMELY PREFETCHES:       5963 LATE PREFETCHES: 0 DROPPED PREFETCHES: 0
LLC PREFETCHES SAME FILL-ORIGIN LEVEL: 0 DIFFERENT FILL-ORIGIN LEVEL: 0
LLC AVERAGE MISS LATENCY: 176.756 cycles
LLC RQ	ACCESS:     357678	FORWARD:          0	MERGED:          0	TO_CACHE:     357678
LLC WQ	ACCESS:     485627	FORWARD:          0	MERGED:          0	TO_CACHE:     485627
LLC PQ	ACCESS:     974677	FORWARD:          0	MERGED:          0	TO_CACHE:     974677

LLC Dense regions hint to LLC: 0

RAW hits: 84869
Loads Generated: 32010390
Loads sent to L1D: 31925519
Stores Generated: 3205648
Stores sent to L1D: 3205648
Major fault: 0 Minor fault: 257109
Allocated PAGES: 257109

stream: 
stream:times selected: 2222544
stream:pref_reqs: 2189128
stream:pref_reqs_filtered_out: 464263
stream:pref_filled: 838017
stream:pref_useful: 353864
stream:pref_late: 4233
stream:misses: 120122
stream:misses_by_poll: 0

CS: 
CS:times selected: 450495
CS:pref_reqs: 1330161
CS:pref_reqs_filtered_out: 481220
CS:pref_filled: 443875
CS:pref_useful: 314981
CS:pref_late: 0
CS:misses: 10514
CS:misses_by_poll: 426

CPLX: 
CPLX:times selected: 1469485
CPLX:pref_reqs: 2600574
CPLX:pref_reqs_filtered_out: 1386563
CPLX:pref_filled: 505447
CPLX:pref_useful: 376528
CPLX:pref_late: 1966
CPLX:misses: 127140
CPLX:misses_by_poll: 947

ISB: 
ISB:total access:42733250
ISB:times selected:16806956
ISB:canary counter:0
ISB:pref_reqs: 34375962
ISB:pref_reqs_filtered_out: 28640131
ISB:pref_filled: 244026
ISB:pref_useful: 218484
ISB:pref_late: 0
ISB:misses: 106078
ISB:misses_by_poll: 208
ISB:Stream end: 13674932
ISB:No Prediction: 25926294 60.6701
ISB:No translation: 3162123419
ISB:Predictions: 4601974 10.7691

NL_L1: 
NL:times selected: 158
NL:pref_reqs: 158
NL:pref_reqs_filtered_out: 12
NL:pref_filled: 135
NL:pref_useful: 57
NL:pref_late: 0
NL:misses: 27
NL:misses_by_poll: 0

Coverage: 64.282
total selections: 20949638
total_filled: 985687
total_useful: 618393
total_late: 6377
total_polluted: 1581
total_misses_after_warmup: 440274
conflicts: 6370393

test: 0
ISB Prefetcher final stats
Prefetcher final stats
Training Unit Size: 67
Addr table size: 657555 657555
Triggers: 42733250
Structural address exists: 16806956 39.3299
No Prediction: 25926294 60.6701
Prefetches issued: 4601974 10.7691
Stream end: 13674932
No translation: 3162123419
%Stream divergence: 3822 0.00894386
Stream divergence -- new stream: 0
A: 0
B: 0
C: 2222551
D: 2222551
E: 2222551
F: 0
G: 0

DRAM Statistics
 CHANNEL 0
 RQ ROW_BUFFER_HIT:     346477  ROW_BUFFER_MISS:     855763
 DBUS_CONGESTED:        939
 WQ ROW_BUFFER_HIT:     117307  ROW_BUFFER_MISS:     367819  FULL:          0

 AVG_CONGESTED_CYCLE: 4
 All warmup complete: 2
Channel 0 Bank busy for read cycles: 0
Channel 0 Bank busy for write cycles: 0
Channel 0
Rank 0
0banks busy for read cycles: 1730303
0banks busy for write cycles: 18489
1banks busy for read cycles: 24002062
1banks busy for write cycles: 2526373
2banks busy for read cycles: 16769303
2banks busy for write cycles: 3358762
3banks busy for read cycles: 11415781
3banks busy for write cycles: 4043140
4banks busy for read cycles: 6621930
4banks busy for write cycles: 4416238
5banks busy for read cycles: 3152631
5banks busy for write cycles: 4336463
6banks busy for read cycles: 1332478
6banks busy for write cycles: 3686829
7banks busy for read cycles: 433466
7banks busy for write cycles: 2662063
8banks busy for read cycles: 78557
8banks busy for write cycles: 1410453

CPU 0 Branch Prediction Accuracy: 93.3275% MPKI: 0.80204 Average ROB Occupancy at Mispredict: 245.863
Branch types
NOT_BRANCH: 49399000 98.798%
BRANCH_DIRECT_JUMP: 40061 0.080122%
BRANCH_INDIRECT: 0 0%
BRANCH_CONDITIONAL: 560941 1.12188%
BRANCH_DIRECT_CALL: 0 0%
BRANCH_INDIRECT_CALL: 0 0%
BRANCH_RETURN: 0 0%
BRANCH_OTHER: 0 0%

DRAM PAGES: 1048576
Allocated PAGES: 257109
