
*** ChampSim Multicore Out-of-Order Simulator ***

Warmup Instructions: 50000000
Simulation Instructions: 50000000
Number of CPUs: 1
LLC sets: 2048
LLC ways: 16
Off-chip DRAM Size: 4096 MB Channels: 1 Width: 64-bit Data Rate: 6400 MT/s
CPU 0 runs ./traces/SPEC-CPU2017/649.fotonik3d_s-10881B.champsimtrace.xz
.xz
CPU 0 Bimodal branch predictor
BTB has LRU replacement policy
ITLB has LRU replacement policy
DTLB has LRU replacement policy
STLB has LRU replacement policy
L1I has LRU replacement policy
L1D has LRU replacement policy
L2C has LRU replacement policy
LLC has LRU replacement policy
Heartbeat CPU 0 instructions: 10000002 cycles: 5236463 heartbeat IPC: 1.90969 cumulative IPC: 1.90969 (Simulation time: 0 hr 26 min 30 sec) 
Heartbeat CPU 0 instructions: 20000000 cycles: 10480729 heartbeat IPC: 1.90684 cumulative IPC: 1.90826 (Simulation time: 0 hr 53 min 28 sec) 
Heartbeat CPU 0 instructions: 30000000 cycles: 15735147 heartbeat IPC: 1.90316 cumulative IPC: 1.90656 (Simulation time: 1 hr 11 min 43 sec) 
Heartbeat CPU 0 instructions: 40000000 cycles: 20972481 heartbeat IPC: 1.90937 cumulative IPC: 1.90726 (Simulation time: 1 hr 22 min 43 sec) 
Heartbeat CPU 0 instructions: 50000000 cycles: 26196344 heartbeat IPC: 1.91429 cumulative IPC: 1.90866 (Simulation time: 1 hr 33 min 19 sec) 

Warmup complete CPU 0 instructions: 50000004 cycles: 26196345 (Simulation time: 1 hr 33 min 19 sec) 

Heartbeat CPU 0 instructions: 60000000 cycles: 44536415 heartbeat IPC: 0.545254 cumulative IPC: 0.545254 (Simulation time: 1 hr 36 min 38 sec) 
Heartbeat CPU 0 instructions: 70000000 cycles: 63365096 heartbeat IPC: 0.531105 cumulative IPC: 0.538086 (Simulation time: 1 hr 40 min 11 sec) 
Heartbeat CPU 0 instructions: 80000000 cycles: 81980972 heartbeat IPC: 0.537176 cumulative IPC: 0.537782 (Simulation time: 1 hr 43 min 50 sec) 
Heartbeat CPU 0 instructions: 90000003 cycles: 100512134 heartbeat IPC: 0.539632 cumulative IPC: 0.538244 (Simulation time: 1 hr 47 min 30 sec) 
Heartbeat CPU 0 instructions: 100000000 cycles: 118825430 heartbeat IPC: 0.546051 cumulative IPC: 0.539787 (Simulation time: 1 hr 51 min 10 sec) 
Finished CPU 0 instructions: 50000001 cycles: 92629125 cumulative IPC: 0.539787 (Simulation time: 1 hr 51 min 10 sec) 

ChampSim completed all CPUs

Region of Interest Statistics

CPU 0 cumulative IPC: 0.539787 instructions: 50000001 cycles: 92629125
ITLB TOTAL     ACCESS:    7723620  HIT:    7723620  MISS:          0  HIT %:        100  MISS %:          0   MPKI: 0
ITLB LOAD TRANSLATION ACCESS:    7723620  HIT:    7723620  MISS:          0  HIT %:        100  MISS %:          0   MPKI: 0
ITLB PREFETCH  REQUESTED:          0  ISSUED:          0  USEFUL:          0  USELESS:          0
ITLB USEFUL LOAD PREFETCHES:          0 PREFETCH ISSUED TO LOWER LEVEL:          0  ACCURACY: -nan
ITLB TIMELY PREFETCHES:          0 LATE PREFETCHES: 0 DROPPED PREFETCHES: 0
ITLB PREFETCHES SAME FILL-ORIGIN LEVEL: 0 DIFFERENT FILL-ORIGIN LEVEL: 0
ITLB AVERAGE MISS LATENCY: -nan cycles
ITLB RQ	ACCESS:    8642375	FORWARD:          0	MERGED:     918756	TO_CACHE:    7723619

DTLB TOTAL     ACCESS:   21352906  HIT:   21087657  MISS:     265249  HIT %:    98.7578  MISS %:    1.24221   MPKI: 5.30498
DTLB LOAD TRANSLATION ACCESS:   21352906  HIT:   21087657  MISS:     265249  HIT %:    98.7578  MISS %:    1.24221   MPKI: 5.30498
DTLB PREFETCH  REQUESTED:          0  ISSUED:          0  USEFUL:          0  USELESS:          0
DTLB USEFUL LOAD PREFETCHES:          0 PREFETCH ISSUED TO LOWER LEVEL:          0  ACCURACY: -nan
DTLB TIMELY PREFETCHES:          0 LATE PREFETCHES: 0 DROPPED PREFETCHES: 0
DTLB PREFETCHES SAME FILL-ORIGIN LEVEL: 0 DIFFERENT FILL-ORIGIN LEVEL: 0
DTLB AVERAGE MISS LATENCY: 137.57 cycles
DTLB RQ	ACCESS:   23871871	FORWARD:          0	MERGED:    2505122	TO_CACHE:   21366749

STLB TOTAL     ACCESS:    1492770  HIT:    1323438  MISS:     169332  HIT %:    88.6565  MISS %:    11.3435   MPKI: 3.38664
STLB LOAD TRANSLATION ACCESS:     265249  HIT:     127498  MISS:     137751  HIT %:    48.0673  MISS %:    51.9327   MPKI: 2.75502
STLB TRANSLATION FROM L1D PREFETCHER ACCESS:    1227521  HIT:    1195940  MISS:      31581  HIT %:    97.4273  MISS %:    2.57275   MPKI: 0.63162
STLB PREFETCH  REQUESTED:          0  ISSUED:          0  USEFUL:      31580  USELESS:          2
STLB USEFUL LOAD PREFETCHES:      31580 PREFETCH ISSUED TO LOWER LEVEL:          0  ACCURACY: inf
STLB TIMELY PREFETCHES:      31580 LATE PREFETCHES: 1 DROPPED PREFETCHES: 0
STLB PREFETCHES SAME FILL-ORIGIN LEVEL: 0 DIFFERENT FILL-ORIGIN LEVEL: 0
STLB AVERAGE MISS LATENCY: 207.441 cycles
STLB RQ	ACCESS:    2220630	FORWARD:          0	MERGED:     727416	TO_CACHE:    1493214

STLB Hit, L1D data hit: 0
STLB Hit, L2C data hit: 0
STLB Hit, LLC data hit: 0
STLB Hit, LLC data miss: 0
STLB STLB hints to L2: 0
L1D TOTAL     ACCESS:   25683652  HIT:   24348096  MISS:    1335556  HIT %:       94.8  MISS %:    5.20002   MPKI: 26.7111
L1D LOAD      ACCESS:   20555574  HIT:   20141057  MISS:     414517  HIT %:    97.9834  MISS %:    2.01657   MPKI: 8.29034
L1D RFO       ACCESS:    3205648  HIT:    3205648  MISS:          0  HIT %:        100  MISS %:          0   MPKI: 0
L1D PREFETCH  ACCESS:    1922430  HIT:    1001391  MISS:     921039  HIT %:    52.0899  MISS %:    47.9101   MPKI: 18.4208
AGUS PREFETCH L1 MISS: 0
L1D PREFETCH  REQUESTED:    4120785  ISSUED:    3910762  USEFUL:     547483  USELESS:     373551
L1D USEFUL LOAD PREFETCHES:     547483 PREFETCH ISSUED TO LOWER LEVEL:     928027  ACCURACY: 58.9943
L1D TIMELY PREFETCHES:     547483 LATE PREFETCHES: 6986 DROPPED PREFETCHES: 0
L1D PREFETCHES SAME FILL-ORIGIN LEVEL: 928027 DIFFERENT FILL-ORIGIN LEVEL: 0
L1D AVERAGE MISS LATENCY: 217.07 cycles
L1D RQ	ACCESS:   31925478	FORWARD:          0	MERGED:   11251140	TO_CACHE:   20666223
L1D WQ	ACCESS:    3205648	FORWARD:       8115	MERGED:          0	TO_CACHE:    3205648
L1D PQ	ACCESS:    1955381	FORWARD:          0	MERGED:          0	TO_CACHE:    1955381

L1D UNIQUE REGIONS ACCESSED: 0
L1D REGIONS CONFLICTS: 0
L1D Cross Page Prefetch Requests: 619122
L1D Same Page Prefetch Requests: 3100951
L1D ROI Sum of L1D PQ occupancy: 37733603
L1D PREFETCHES PUSHED FROM L2C: 0
L1I TOTAL     ACCESS:    8642376  HIT:    8642376  MISS:          0  HIT %:        100  MISS %:          0   MPKI: 0
L1I LOAD      ACCESS:    8642376  HIT:    8642376  MISS:          0  HIT %:        100  MISS %:          0   MPKI: 0
L1I PREFETCH  REQUESTED:          0  ISSUED:          0  USEFUL:          0  USELESS:          0
L1I USEFUL LOAD PREFETCHES:          0 PREFETCH ISSUED TO LOWER LEVEL:          0  ACCURACY: -nan
L1I TIMELY PREFETCHES:          0 LATE PREFETCHES: 0 DROPPED PREFETCHES: 0
L1I PREFETCHES SAME FILL-ORIGIN LEVEL: 0 DIFFERENT FILL-ORIGIN LEVEL: 0
L1I AVERAGE MISS LATENCY: -nan cycles
L1I RQ	ACCESS:   14954320	FORWARD:          0	MERGED:    6311945	TO_CACHE:    8642375

BTB TOTAL     ACCESS:     560941  HIT:     560936  MISS:          5  HIT %:    99.9991  MISS %: 0.000891359   MPKI: 0.0001
BTB BRANCH_DIRECT_JUMP	ACCESS:      40061  HIT:      40060  MISS:          1
BTB BRANCH_INDIRECT	ACCESS:          0  HIT:          0  MISS:          0
BTB BRANCH_CONDITIONAL	ACCESS:     520880  HIT:     520876  MISS:          4
BTB BRANCH_DIRECT_CALL	ACCESS:          0  HIT:          0  MISS:          0
BTB BRANCH_INDIRECT_CALL	ACCESS:          0  HIT:          0  MISS:          0
BTB BRANCH_RETURN	ACCESS:          0  HIT:          0  MISS:          0
BTB BRANCH_OTHER ACCESS:          0  HIT:          0  MISS:          0

L2C TOTAL     ACCESS:    1990677  HIT:     653659  MISS:    1337018  HIT %:     32.836  MISS %:     67.164   MPKI: 26.7404
L2C LOAD      ACCESS:     407531  HIT:       1446  MISS:     406085  HIT %:    0.35482  MISS %:    99.6452   MPKI: 8.1217
L2C DATA LOAD MPKI: 8.1217
L2C INSTRUCTION LOAD MPKI: 0
L2C PREFETCH  ACCESS:     928025  HIT:      18658  MISS:     909367  HIT %:    2.01051  MISS %:    97.9895   MPKI: 18.1873
AGUS PREFETCH L1 MISS: 0
L2C DATA PREFETCH MPKI: 18.1873
L2C INSTRUCTION PREFETCH MPKI: 0
L2C WRITEBACK ACCESS:     485740  HIT:     485740  MISS:          0  HIT %:        100  MISS %:          0   MPKI: 0
L2C LOAD TRANSLATION ACCESS:     137796  HIT:     121335  MISS:      16461  HIT %:    88.0541  MISS %:    11.9459   MPKI: 0.32922
L2C TRANSLATION FROM L1D PREFETCHER ACCESS:      31585  HIT:      26480  MISS:       5105  HIT %:    83.8373  MISS %:    16.1627   MPKI: 0.1021
L2C PREFETCH  REQUESTED:          0  ISSUED:          0  USEFUL:       6529  USELESS:     907943
L2C USEFUL LOAD PREFETCHES:       6529 PREFETCH ISSUED TO LOWER LEVEL:     909369  ACCURACY: 0.71797
L2C TIMELY PREFETCHES:       6529 LATE PREFETCHES: 0 DROPPED PREFETCHES: 0
L2C PREFETCHES SAME FILL-ORIGIN LEVEL: 0 DIFFERENT FILL-ORIGIN LEVEL: 0
L2C AVERAGE MISS LATENCY: 192.959 cycles
L2C RQ	ACCESS:     576912	FORWARD:          0	MERGED:          0	TO_CACHE:     576912
L2C WQ	ACCESS:     485740	FORWARD:          0	MERGED:          0	TO_CACHE:     485740
L2C PQ	ACCESS:     928027	FORWARD:          0	MERGED:          0	TO_CACHE:     928027

L2C Instructions Evicting Data 0
L2C Translations Evicting Data 21394
L2C Data Evicting Data 1294077
L2C Instructions Evicting Instructions 0
L2C Translations Evicting Instructions 0
L2C Data Evicting Instructions 0
L2C Instructions Evicting Translations 0
L2C Translations Evicting Translations 172
L2C Data Evicting Translations 21375
L2C Dense regions hint from L2: 0
PSCL5 TOTAL     ACCESS:     169332  HIT:     169332  MISS:          0  HIT %:        100  MISS %:          0   MPKI: 0
PSCL5 LOAD TRANSLATION ACCESS:     137750  HIT:     137750  MISS:          0  HIT %:        100  MISS %:          0   MPKI: 0
PSCL5 TRANSLATION FROM L1D PREFETCHER ACCESS:      31582  HIT:      31582  MISS:          0  HIT %:        100  MISS %:          0   MPKI: 0
PSCL5 PREFETCH  REQUESTED:          0  ISSUED:          0  USEFUL:          0  USELESS:          0
PSCL5 USEFUL LOAD PREFETCHES:          0 PREFETCH ISSUED TO LOWER LEVEL:          0  ACCURACY: -nan
PSCL5 TIMELY PREFETCHES:          0 LATE PREFETCHES: 0 DROPPED PREFETCHES: 0
PSCL5 PREFETCHES SAME FILL-ORIGIN LEVEL: 0 DIFFERENT FILL-ORIGIN LEVEL: 0

PSCL4 TOTAL     ACCESS:     169332  HIT:     169332  MISS:          0  HIT %:        100  MISS %:          0   MPKI: 0
PSCL4 LOAD TRANSLATION ACCESS:     137750  HIT:     137750  MISS:          0  HIT %:        100  MISS %:          0   MPKI: 0
PSCL4 TRANSLATION FROM L1D PREFETCHER ACCESS:      31582  HIT:      31582  MISS:          0  HIT %:        100  MISS %:          0   MPKI: 0
PSCL4 PREFETCH  REQUESTED:          0  ISSUED:          0  USEFUL:          0  USELESS:          0
PSCL4 USEFUL LOAD PREFETCHES:          0 PREFETCH ISSUED TO LOWER LEVEL:          0  ACCURACY: -nan
PSCL4 TIMELY PREFETCHES:          0 LATE PREFETCHES: 0 DROPPED PREFETCHES: 0
PSCL4 PREFETCHES SAME FILL-ORIGIN LEVEL: 0 DIFFERENT FILL-ORIGIN LEVEL: 0

PSCL3 TOTAL     ACCESS:     169332  HIT:     169332  MISS:          0  HIT %:        100  MISS %:          0   MPKI: 0
PSCL3 LOAD TRANSLATION ACCESS:     137750  HIT:     137750  MISS:          0  HIT %:        100  MISS %:          0   MPKI: 0
PSCL3 TRANSLATION FROM L1D PREFETCHER ACCESS:      31582  HIT:      31582  MISS:          0  HIT %:        100  MISS %:          0   MPKI: 0
PSCL3 PREFETCH  REQUESTED:          0  ISSUED:          0  USEFUL:          0  USELESS:          0
PSCL3 USEFUL LOAD PREFETCHES:          0 PREFETCH ISSUED TO LOWER LEVEL:          0  ACCURACY: -nan
PSCL3 TIMELY PREFETCHES:          0 LATE PREFETCHES: 0 DROPPED PREFETCHES: 0
PSCL3 PREFETCHES SAME FILL-ORIGIN LEVEL: 0 DIFFERENT FILL-ORIGIN LEVEL: 0

PSCL2 TOTAL     ACCESS:     169332  HIT:     169035  MISS:        297  HIT %:    99.8246  MISS %:   0.175395   MPKI: 0.00594
PSCL2 LOAD TRANSLATION ACCESS:     137753  HIT:     137456  MISS:        297  HIT %:    99.7844  MISS %:   0.215603   MPKI: 0.00594
PSCL2 TRANSLATION FROM L1D PREFETCHER ACCESS:      31579  HIT:      31579  MISS:          0  HIT %:        100  MISS %:          0   MPKI: 0
PSCL2 PREFETCH  REQUESTED:          0  ISSUED:          0  USEFUL:          0  USELESS:          0
PSCL2 USEFUL LOAD PREFETCHES:          0 PREFETCH ISSUED TO LOWER LEVEL:          0  ACCURACY: -nan
PSCL2 TIMELY PREFETCHES:          0 LATE PREFETCHES: 0 DROPPED PREFETCHES: 0
PSCL2 PREFETCHES SAME FILL-ORIGIN LEVEL: 0 DIFFERENT FILL-ORIGIN LEVEL: 0

LLC TOTAL     ACCESS:    1822751  HIT:     617536  MISS:    1205215  HIT %:    33.8793  MISS %:    66.1207   MPKI: 24.1043
LLC LOAD      ACCESS:     406085  HIT:      41137  MISS:     364948  HIT %:    10.1301  MISS %:    89.8699   MPKI: 7.29896
LLC PREFETCH  ACCESS:     909368  HIT:      87675  MISS:     821693  HIT %:    9.64131  MISS %:    90.3587   MPKI: 16.4339
AGUS PREFETCH L1 MISS: 0
LLC WRITEBACK ACCESS:     485732  HIT:     485732  MISS:          0  HIT %:        100  MISS %:          0   MPKI: 0
LLC LOAD TRANSLATION ACCESS:      16461  HIT:        217  MISS:      16244  HIT %:    1.31827  MISS %:    98.6817   MPKI: 0.32488
LLC TRANSLATION FROM L1D PREFETCHER ACCESS:       5105  HIT:       2775  MISS:       2330  HIT %:    54.3585  MISS %:    45.6415   MPKI: 0.0466
LLC PREFETCH  REQUESTED:          0  ISSUED:          0  USEFUL:      12331  USELESS:     812377
LLC USEFUL LOAD PREFETCHES:      12331 PREFETCH ISSUED TO LOWER LEVEL:     821694  ACCURACY: 1.50068
LLC TIMELY PREFETCHES:      12331 LATE PREFETCHES: 0 DROPPED PREFETCHES: 0
LLC PREFETCHES SAME FILL-ORIGIN LEVEL: 0 DIFFERENT FILL-ORIGIN LEVEL: 0
LLC AVERAGE MISS LATENCY: 174.438 cycles
LLC RQ	ACCESS:     427651	FORWARD:          0	MERGED:          0	TO_CACHE:     427651
LLC WQ	ACCESS:     485732	FORWARD:          0	MERGED:          0	TO_CACHE:     485732
LLC PQ	ACCESS:     909369	FORWARD:          0	MERGED:          0	TO_CACHE:     909369

LLC Dense regions hint to LLC: 0

RAW hits: 84910
Loads Generated: 32010390
Loads sent to L1D: 31925478
Stores Generated: 3205648
Stores sent to L1D: 3205648
Major fault: 0 Minor fault: 257109
Allocated PAGES: 257109

stream: 
stream:times selected: 2219367
stream:pref_reqs: 2186105
stream:pref_reqs_filtered_out: 574182
stream:pref_filled: 885820
stream:pref_useful: 375941
stream:pref_late: 5131
stream:misses: 124544
stream:misses_by_poll: 0

CS: 
CS:times selected: 392173
CS:pref_reqs: 1158254
CS:pref_reqs_filtered_out: 583985
CS:pref_filled: 386661
CS:pref_useful: 321600
CS:pref_late: 0
CS:misses: 6715
CS:misses_by_poll: 217

CPLX: 
CPLX:times selected: 1504162
CPLX:pref_reqs: 2415120
CPLX:pref_reqs_filtered_out: 1515493
CPLX:pref_filled: 498173
CPLX:pref_useful: 341883
CPLX:pref_late: 2225
CPLX:misses: 142790
CPLX:misses_by_poll: 867

ISB: 
ISB:total access:25238692
ISB:times selected:5739153
ISB:canary counter:0
ISB:pref_reqs: 6097135
ISB:pref_reqs_filtered_out: 5206884
ISB:pref_filled: 105699
ISB:pref_useful: 84830
ISB:pref_late: 3
ISB:misses: 62558
ISB:misses_by_poll: 40
ISB:Stream end: 5026453
ISB:No Prediction: 19499539 77.2605
ISB:No translation: 162612438 644.298
ISB:Predictions: 804276 3.18668

NL_L1: 
NL:times selected: 365
NL:pref_reqs: 365
NL:pref_reqs_filtered_out: 30
NL:pref_filled: 299
NL:pref_useful: 107
NL:pref_late: 0
NL:misses: 67
NL:misses_by_poll: 0

Coverage: 56.9109
total selections: 9855220
total_filled: 921039
total_useful: 547483
total_late: 7550
total_polluted: 1124
total_misses_after_warmup: 525158
conflicts: 6409135

test: 0
Prefetcher final stats
Training Unit Size: 27
Addr table size: 380415 380415
Stream divergence: 4672 0.0185113
Stream divergence -- new stream: 0
--------------------------Training unit table ------------------------

DRAM Statistics
 CHANNEL 0
 RQ ROW_BUFFER_HIT:     358119  ROW_BUFFER_MISS:     847097
 DBUS_CONGESTED:       1106
 WQ ROW_BUFFER_HIT:     113664  ROW_BUFFER_MISS:     371733  FULL:          0

 AVG_CONGESTED_CYCLE: 4
 All warmup complete: 2
Channel 0 Bank busy for read cycles: 0
Channel 0 Bank busy for write cycles: 0
Channel 0
Rank 0
0banks busy for read cycles: 2006509
0banks busy for write cycles: 21837
1banks busy for read cycles: 23923416
1banks busy for write cycles: 2965642
2banks busy for read cycles: 16544293
2banks busy for write cycles: 3811974
3banks busy for read cycles: 11218645
3banks busy for write cycles: 4477220
4banks busy for read cycles: 6472026
4banks busy for write cycles: 4721379
5banks busy for read cycles: 3219866
5banks busy for write cycles: 4364851
6banks busy for read cycles: 1396944
6banks busy for write cycles: 3529697
7banks busy for read cycles: 462574
7banks busy for write cycles: 2341112
8banks busy for read cycles: 88106
8banks busy for write cycles: 1063035

CPU 0 Branch Prediction Accuracy: 93.3275% MPKI: 0.80204 Average ROB Occupancy at Mispredict: 245.67
Branch types
NOT_BRANCH: 49399000 98.798%
BRANCH_DIRECT_JUMP: 40061 0.080122%
BRANCH_INDIRECT: 0 0%
BRANCH_CONDITIONAL: 560941 1.12188%
BRANCH_DIRECT_CALL: 0 0%
BRANCH_INDIRECT_CALL: 0 0%
BRANCH_RETURN: 0 0%
BRANCH_OTHER: 0 0%

DRAM PAGES: 1048576
Allocated PAGES: 257109
