
*** ChampSim Multicore Out-of-Order Simulator ***

Warmup Instructions: 50000000
Simulation Instructions: 50000000
Number of CPUs: 1
LLC sets: 2048
LLC ways: 16
Off-chip DRAM Size: 4096 MB Channels: 1 Width: 64-bit Data Rate: 6400 MT/s
CPU 0 runs ./traces/SPEC-CPU2017/654.roms_s-1007B.champsimtrace.xz
.xz
CPU 0 Bimodal branch predictor
BTB has LRU replacement policy
ITLB has LRU replacement policy
DTLB has LRU replacement policy
STLB has LRU replacement policy
L1I has LRU replacement policy
L1D has LRU replacement policy
L2C has LRU replacement policy
LLC has LRU replacement policy
Heartbeat CPU 0 instructions: 10000000 cycles: 3077785 heartbeat IPC: 3.24909 cumulative IPC: 3.24909 (Simulation time: 0 hr 9 min 59 sec) 
Heartbeat CPU 0 instructions: 20000000 cycles: 6155093 heartbeat IPC: 3.24959 cumulative IPC: 3.24934 (Simulation time: 0 hr 19 min 59 sec) 
Heartbeat CPU 0 instructions: 30000000 cycles: 9232744 heartbeat IPC: 3.24923 cumulative IPC: 3.2493 (Simulation time: 0 hr 29 min 58 sec) 
Heartbeat CPU 0 instructions: 40000000 cycles: 12310204 heartbeat IPC: 3.24943 cumulative IPC: 3.24934 (Simulation time: 0 hr 39 min 54 sec) 
Heartbeat CPU 0 instructions: 50000000 cycles: 15473621 heartbeat IPC: 3.16114 cumulative IPC: 3.23131 (Simulation time: 0 hr 51 min 28 sec) 

Warmup complete CPU 0 instructions: 50000004 cycles: 15473622 (Simulation time: 0 hr 51 min 28 sec) 

Heartbeat CPU 0 instructions: 60000000 cycles: 32101370 heartbeat IPC: 0.601404 cumulative IPC: 0.601404 (Simulation time: 0 hr 54 min 14 sec) 
Heartbeat CPU 0 instructions: 70000000 cycles: 51657137 heartbeat IPC: 0.511358 cumulative IPC: 0.552738 (Simulation time: 0 hr 56 min 32 sec) 
Heartbeat CPU 0 instructions: 80000000 cycles: 71198973 heartbeat IPC: 0.511723 cumulative IPC: 0.538355 (Simulation time: 0 hr 58 min 26 sec) 
Heartbeat CPU 0 instructions: 90000000 cycles: 90730380 heartbeat IPC: 0.511996 cumulative IPC: 0.531514 (Simulation time: 1 hr 0 min 13 sec) 
Heartbeat CPU 0 instructions: 100000000 cycles: 110254059 heartbeat IPC: 0.512199 cumulative IPC: 0.527535 (Simulation time: 1 hr 2 min 8 sec) 
Finished CPU 0 instructions: 50000001 cycles: 94780461 cumulative IPC: 0.527535 (Simulation time: 1 hr 2 min 8 sec) 

ChampSim completed all CPUs

Region of Interest Statistics

CPU 0 cumulative IPC: 0.527535 instructions: 50000001 cycles: 94780461
ITLB TOTAL     ACCESS:    8492314  HIT:    8492312  MISS:          2  HIT %:        100  MISS %: 2.35507e-05   MPKI: 4e-05
ITLB LOAD TRANSLATION ACCESS:    8492314  HIT:    8492312  MISS:          2  HIT %:        100  MISS %: 2.35507e-05   MPKI: 4e-05
ITLB PREFETCH  REQUESTED:          0  ISSUED:          0  USEFUL:          0  USELESS:          0
ITLB USEFUL LOAD PREFETCHES:          0 PREFETCH ISSUED TO LOWER LEVEL:          0  ACCURACY: -nan
ITLB TIMELY PREFETCHES:          0 LATE PREFETCHES: 0 DROPPED PREFETCHES: 0
ITLB PREFETCHES SAME FILL-ORIGIN LEVEL: 0 DIFFERENT FILL-ORIGIN LEVEL: 0
ITLB AVERAGE MISS LATENCY: 325.5 cycles
ITLB RQ	ACCESS:   10720229	FORWARD:          0	MERGED:    2227915	TO_CACHE:    8492314

DTLB TOTAL     ACCESS:   13672457  HIT:   13666582  MISS:       5875  HIT %:     99.957  MISS %:  0.0429696   MPKI: 0.1175
DTLB LOAD TRANSLATION ACCESS:   13672457  HIT:   13666582  MISS:       5875  HIT %:     99.957  MISS %:  0.0429696   MPKI: 0.1175
DTLB PREFETCH  REQUESTED:          0  ISSUED:          0  USEFUL:          0  USELESS:          0
DTLB USEFUL LOAD PREFETCHES:          0 PREFETCH ISSUED TO LOWER LEVEL:          0  ACCURACY: -nan
DTLB TIMELY PREFETCHES:          0 LATE PREFETCHES: 0 DROPPED PREFETCHES: 0
DTLB PREFETCHES SAME FILL-ORIGIN LEVEL: 0 DIFFERENT FILL-ORIGIN LEVEL: 0
DTLB AVERAGE MISS LATENCY: 173.946 cycles
DTLB RQ	ACCESS:   15435371	FORWARD:          0	MERGED:    1755564	TO_CACHE:   13679807

STLB TOTAL     ACCESS:     433702  HIT:     427823  MISS:       5879  HIT %:    98.6445  MISS %:    1.35554   MPKI: 0.11758
STLB LOAD TRANSLATION ACCESS:       5877  HIT:        543  MISS:       5334  HIT %:    9.23941  MISS %:    90.7606   MPKI: 0.10668
STLB TRANSLATION FROM L1D PREFETCHER ACCESS:     427825  HIT:     427280  MISS:        545  HIT %:    99.8726  MISS %:   0.127389   MPKI: 0.0109
STLB PREFETCH  REQUESTED:          0  ISSUED:          0  USEFUL:        542  USELESS:          0
STLB USEFUL LOAD PREFETCHES:        542 PREFETCH ISSUED TO LOWER LEVEL:          0  ACCURACY: inf
STLB TIMELY PREFETCHES:        542 LATE PREFETCHES: 0 DROPPED PREFETCHES: 0
STLB PREFETCHES SAME FILL-ORIGIN LEVEL: 0 DIFFERENT FILL-ORIGIN LEVEL: 0
STLB AVERAGE MISS LATENCY: 169.216 cycles
STLB RQ	ACCESS:    1828962	FORWARD:          0	MERGED:    1395259	TO_CACHE:     433703

STLB Hit, L1D data hit: 0
STLB Hit, L2C data hit: 0
STLB Hit, LLC data hit: 0
STLB Hit, LLC data miss: 0
STLB STLB hints to L2: 0
L1D TOTAL     ACCESS:   16834909  HIT:   16581751  MISS:     253158  HIT %:    98.4962  MISS %:    1.50377   MPKI: 5.06316
L1D LOAD      ACCESS:    9433582  HIT:    9419295  MISS:      14287  HIT %:    99.8486  MISS %:   0.151448   MPKI: 0.28574
L1D RFO       ACCESS:    5591706  HIT:    5507085  MISS:      84621  HIT %:    98.4867  MISS %:    1.51333   MPKI: 1.69242
L1D PREFETCH  ACCESS:    1809621  HIT:    1655371  MISS:     154250  HIT %:    91.4761  MISS %:    8.52388   MPKI: 3.085
AGUS PREFETCH L1 MISS: 0
L1D PREFETCH  REQUESTED:    4081316  ISSUED:    3646170  USEFUL:     143122  USELESS:      11108
L1D USEFUL LOAD PREFETCHES:     143122 PREFETCH ISSUED TO LOWER LEVEL:     161275  ACCURACY: 88.7441
L1D TIMELY PREFETCHES:     143122 LATE PREFETCHES: 7025 DROPPED PREFETCHES: 0
L1D PREFETCHES SAME FILL-ORIGIN LEVEL: 161275 DIFFERENT FILL-ORIGIN LEVEL: 0
L1D AVERAGE MISS LATENCY: 276.442 cycles
L1D RQ	ACCESS:   11798461	FORWARD:          0	MERGED:    2284603	TO_CACHE:    9456275
L1D WQ	ACCESS:    6358286	FORWARD:      57583	MERGED:     379190	TO_CACHE:    5979096
L1D PQ	ACCESS:    1823085	FORWARD:          0	MERGED:          0	TO_CACHE:    1823085

L1D UNIQUE REGIONS ACCESSED: 0
L1D REGIONS CONFLICTS: 0
L1D Cross Page Prefetch Requests: 17030
L1D Same Page Prefetch Requests: 3523157
L1D ROI Sum of L1D PQ occupancy: 28994612
L1D PREFETCHES PUSHED FROM L2C: 0
L1I TOTAL     ACCESS:   10720219  HIT:   10720183  MISS:         36  HIT %:    99.9997  MISS %: 0.000335814   MPKI: 0.00072
L1I LOAD      ACCESS:   10720219  HIT:   10720183  MISS:         36  HIT %:    99.9997  MISS %: 0.000335814   MPKI: 0.00072
L1I PREFETCH  REQUESTED:          0  ISSUED:          0  USEFUL:          0  USELESS:          0
L1I USEFUL LOAD PREFETCHES:          0 PREFETCH ISSUED TO LOWER LEVEL:          0  ACCURACY: -nan
L1I TIMELY PREFETCHES:          0 LATE PREFETCHES: 0 DROPPED PREFETCHES: 0
L1I PREFETCHES SAME FILL-ORIGIN LEVEL: 0 DIFFERENT FILL-ORIGIN LEVEL: 0
L1I AVERAGE MISS LATENCY: 233.361 cycles
L1I RQ	ACCESS:   14205594	FORWARD:          0	MERGED:    3485365	TO_CACHE:   10720229

BTB TOTAL     ACCESS:    3368722  HIT:    2989495  MISS:     379227  HIT %:    88.7427  MISS %:    11.2573   MPKI: 7.58454
BTB BRANCH_DIRECT_JUMP	ACCESS:     379197  HIT:     379193  MISS:          4
BTB BRANCH_INDIRECT	ACCESS:          0  HIT:          0  MISS:          0
BTB BRANCH_CONDITIONAL	ACCESS:    1472752  HIT:    1472732  MISS:         20
BTB BRANCH_DIRECT_CALL	ACCESS:     758387  HIT:     758379  MISS:          8
BTB BRANCH_INDIRECT_CALL	ACCESS:          0  HIT:          0  MISS:          0
BTB BRANCH_RETURN	ACCESS:     758386  HIT:     379191  MISS:     379195
BTB BRANCH_OTHER ACCESS:          0  HIT:          0  MISS:          0

L2C TOTAL     ACCESS:     343593  HIT:      90024  MISS:     253569  HIT %:    26.2008  MISS %:    73.7992   MPKI: 5.07138
L2C LOAD      ACCESS:       7298  HIT:        171  MISS:       7127  HIT %:    2.34311  MISS %:    97.6569   MPKI: 0.14254
L2C DATA LOAD MPKI: 0.14182
L2C INSTRUCTION LOAD MPKI: 0.00072
L2C RFO       ACCESS:      84621  HIT:         53  MISS:      84568  HIT %:  0.0626322  MISS %:    99.9374   MPKI: 1.69136
L2C PREFETCH  ACCESS:     161275  HIT:        646  MISS:     160629  HIT %:   0.400558  MISS %:    99.5994   MPKI: 3.21258
AGUS PREFETCH L1 MISS: 0
L2C DATA PREFETCH MPKI: 3.21258
L2C INSTRUCTION PREFETCH MPKI: 0
L2C WRITEBACK ACCESS:      84510  HIT:      84496  MISS:         14  HIT %:    99.9834  MISS %:  0.0165661   MPKI: 0.00028
L2C LOAD TRANSLATION ACCESS:       5344  HIT:       4193  MISS:       1151  HIT %:    78.4618  MISS %:    21.5382   MPKI: 0.02302
L2C TRANSLATION FROM L1D PREFETCHER ACCESS:        545  HIT:        465  MISS:         80  HIT %:    85.3211  MISS %:    14.6789   MPKI: 0.0016
L2C PREFETCH  REQUESTED:          0  ISSUED:          0  USEFUL:        195  USELESS:     161333
L2C USEFUL LOAD PREFETCHES:        195 PREFETCH ISSUED TO LOWER LEVEL:     160629  ACCURACY: 0.121398
L2C TIMELY PREFETCHES:        195 LATE PREFETCHES: 0 DROPPED PREFETCHES: 0
L2C PREFETCHES SAME FILL-ORIGIN LEVEL: 0 DIFFERENT FILL-ORIGIN LEVEL: 0
L2C AVERAGE MISS LATENCY: 261.595 cycles
L2C RQ	ACCESS:      97808	FORWARD:          0	MERGED:          0	TO_CACHE:      97808
L2C WQ	ACCESS:      84510	FORWARD:          0	MERGED:          0	TO_CACHE:      84510
L2C PQ	ACCESS:     161275	FORWARD:          0	MERGED:          0	TO_CACHE:     161275

L2C Instructions Evicting Data 36
L2C Translations Evicting Data 1230
L2C Data Evicting Data 250998
L2C Instructions Evicting Instructions 0
L2C Translations Evicting Instructions 0
L2C Data Evicting Instructions 36
L2C Instructions Evicting Translations 0
L2C Translations Evicting Translations 1
L2C Data Evicting Translations 1254
L2C Dense regions hint from L2: 0
PSCL5 TOTAL     ACCESS:       5879  HIT:       5879  MISS:          0  HIT %:        100  MISS %:          0   MPKI: 0
PSCL5 LOAD TRANSLATION ACCESS:       5334  HIT:       5334  MISS:          0  HIT %:        100  MISS %:          0   MPKI: 0
PSCL5 TRANSLATION FROM L1D PREFETCHER ACCESS:        545  HIT:        545  MISS:          0  HIT %:        100  MISS %:          0   MPKI: 0
PSCL5 PREFETCH  REQUESTED:          0  ISSUED:          0  USEFUL:          0  USELESS:          0
PSCL5 USEFUL LOAD PREFETCHES:          0 PREFETCH ISSUED TO LOWER LEVEL:          0  ACCURACY: -nan
PSCL5 TIMELY PREFETCHES:          0 LATE PREFETCHES: 0 DROPPED PREFETCHES: 0
PSCL5 PREFETCHES SAME FILL-ORIGIN LEVEL: 0 DIFFERENT FILL-ORIGIN LEVEL: 0

PSCL4 TOTAL     ACCESS:       5879  HIT:       5879  MISS:          0  HIT %:        100  MISS %:          0   MPKI: 0
PSCL4 LOAD TRANSLATION ACCESS:       5334  HIT:       5334  MISS:          0  HIT %:        100  MISS %:          0   MPKI: 0
PSCL4 TRANSLATION FROM L1D PREFETCHER ACCESS:        545  HIT:        545  MISS:          0  HIT %:        100  MISS %:          0   MPKI: 0
PSCL4 PREFETCH  REQUESTED:          0  ISSUED:          0  USEFUL:          0  USELESS:          0
PSCL4 USEFUL LOAD PREFETCHES:          0 PREFETCH ISSUED TO LOWER LEVEL:          0  ACCURACY: -nan
PSCL4 TIMELY PREFETCHES:          0 LATE PREFETCHES: 0 DROPPED PREFETCHES: 0
PSCL4 PREFETCHES SAME FILL-ORIGIN LEVEL: 0 DIFFERENT FILL-ORIGIN LEVEL: 0

PSCL3 TOTAL     ACCESS:       5879  HIT:       5878  MISS:          1  HIT %:     99.983  MISS %:  0.0170097   MPKI: 2e-05
PSCL3 LOAD TRANSLATION ACCESS:       5334  HIT:       5333  MISS:          1  HIT %:    99.9813  MISS %:  0.0187477   MPKI: 2e-05
PSCL3 TRANSLATION FROM L1D PREFETCHER ACCESS:        545  HIT:        545  MISS:          0  HIT %:        100  MISS %:          0   MPKI: 0
PSCL3 PREFETCH  REQUESTED:          0  ISSUED:          0  USEFUL:          0  USELESS:          0
PSCL3 USEFUL LOAD PREFETCHES:          0 PREFETCH ISSUED TO LOWER LEVEL:          0  ACCURACY: -nan
PSCL3 TIMELY PREFETCHES:          0 LATE PREFETCHES: 0 DROPPED PREFETCHES: 0
PSCL3 PREFETCHES SAME FILL-ORIGIN LEVEL: 0 DIFFERENT FILL-ORIGIN LEVEL: 0

PSCL2 TOTAL     ACCESS:       5879  HIT:       5854  MISS:         25  HIT %:    99.5748  MISS %:   0.425242   MPKI: 0.0005
PSCL2 LOAD TRANSLATION ACCESS:       5334  HIT:       5309  MISS:         25  HIT %:    99.5313  MISS %:   0.468691   MPKI: 0.0005
PSCL2 TRANSLATION FROM L1D PREFETCHER ACCESS:        545  HIT:        545  MISS:          0  HIT %:        100  MISS %:          0   MPKI: 0
PSCL2 PREFETCH  REQUESTED:          0  ISSUED:          0  USEFUL:          0  USELESS:          0
PSCL2 USEFUL LOAD PREFETCHES:          0 PREFETCH ISSUED TO LOWER LEVEL:          0  ACCURACY: -nan
PSCL2 TIMELY PREFETCHES:          0 LATE PREFETCHES: 0 DROPPED PREFETCHES: 0
PSCL2 PREFETCHES SAME FILL-ORIGIN LEVEL: 0 DIFFERENT FILL-ORIGIN LEVEL: 0

LLC TOTAL     ACCESS:     337224  HIT:      83690  MISS:     253534  HIT %:    24.8173  MISS %:    75.1827   MPKI: 5.07068
LLC LOAD      ACCESS:       7127  HIT:          2  MISS:       7125  HIT %:  0.0280623  MISS %:    99.9719   MPKI: 0.1425
LLC RFO       ACCESS:      84568  HIT:          0  MISS:      84568  HIT %:          0  MISS %:        100   MPKI: 1.69136
LLC PREFETCH  ACCESS:     160629  HIT:         20  MISS:     160609  HIT %:  0.0124511  MISS %:    99.9875   MPKI: 3.21218
AGUS PREFETCH L1 MISS: 0
LLC WRITEBACK ACCESS:      83669  HIT:      83661  MISS:          8  HIT %:    99.9904  MISS %: 0.00956149   MPKI: 0.00016
LLC LOAD TRANSLATION ACCESS:       1151  HIT:          7  MISS:       1144  HIT %:   0.608167  MISS %:    99.3918   MPKI: 0.02288
LLC TRANSLATION FROM L1D PREFETCHER ACCESS:         80  HIT:          0  MISS:         80  HIT %:          0  MISS %:        100   MPKI: 0.0016
LLC PREFETCH  REQUESTED:          0  ISSUED:          0  USEFUL:          2  USELESS:     163456
LLC USEFUL LOAD PREFETCHES:          2 PREFETCH ISSUED TO LOWER LEVEL:     160609  ACCURACY: 0.00124526
LLC TIMELY PREFETCHES:          2 LATE PREFETCHES: 0 DROPPED PREFETCHES: 0
LLC PREFETCHES SAME FILL-ORIGIN LEVEL: 0 DIFFERENT FILL-ORIGIN LEVEL: 0
LLC AVERAGE MISS LATENCY: 229.328 cycles
LLC RQ	ACCESS:      92926	FORWARD:          0	MERGED:          0	TO_CACHE:      92926
LLC WQ	ACCESS:      83669	FORWARD:          0	MERGED:          0	TO_CACHE:      83669
LLC PQ	ACCESS:     160629	FORWARD:          0	MERGED:          0	TO_CACHE:     160629

LLC Dense regions hint to LLC: 0

RAW hits: 1663229
Loads Generated: 13461690
Loads sent to L1D: 11798461
Stores Generated: 6358280
Stores sent to L1D: 6358286
Major fault: 0 Minor fault: 10630
Allocated PAGES: 10630

stream: 
stream:times selected: 2582037
stream:pref_reqs: 15306377
stream:pref_reqs_filtered_out: 11404388
stream:pref_filled: 331050
stream:pref_useful: 311547
stream:pref_late: 6818
stream:misses: 23
stream:misses_by_poll: 0

CS: 
CS:times selected: 484837
CS:pref_reqs: 1432570
CS:pref_reqs_filtered_out: 1344900
CS:pref_filled: 5586
CS:pref_useful: 5446
CS:pref_late: 87
CS:misses: 23123
CS:misses_by_poll: 4

CPLX: 
CPLX:times selected: 2095377
CPLX:pref_reqs: 5263497
CPLX:pref_reqs_filtered_out: 4838937
CPLX:pref_filled: 230
CPLX:pref_useful: 43
CPLX:pref_late: 1
CPLX:misses: 419
CPLX:misses_by_poll: 0

ISB: 
ISB:total access:15695766
ISB:times selected:121055
ISB:canary counter:0
ISB:pref_reqs: 59493
ISB:pref_reqs_filtered_out: 39638
ISB:pref_filled: 1262
ISB:pref_useful: 642
ISB:pref_late: 1
ISB:misses: 18723
ISB:misses_by_poll: 0
ISB:Stream end: 114902
ISB:No Prediction: 15574711 99.2287
ISB:No translation: 100539982 640.555
ISB:Predictions: 19414 0.123689

NL_L1: 
NL:times selected: 3
NL:pref_reqs: 3
NL:pref_reqs_filtered_out: 0
NL:pref_filled: 3
NL:pref_useful: 3
NL:pref_late: 0
NL:misses: 0
NL:misses_by_poll: 0

Coverage: 90.9236
total selections: 5283309
total_filled: 154250
total_useful: 143122
total_late: 7065
total_polluted: 4
total_misses_after_warmup: 36984
conflicts: 47120

test: 0
Prefetcher final stats
Training Unit Size: 30
Addr table size: 19166 19167
Stream divergence: 192 0.00122326
Stream divergence -- new stream: 0
--------------------------Training unit table ------------------------

DRAM Statistics
 CHANNEL 0
 RQ ROW_BUFFER_HIT:      95576  ROW_BUFFER_MISS:     157950
 DBUS_CONGESTED:         44
 WQ ROW_BUFFER_HIT:       9752  ROW_BUFFER_MISS:      72034  FULL:          0

 AVG_CONGESTED_CYCLE: 5
 All warmup complete: 2
Channel 0 Bank busy for read cycles: 0
Channel 0 Bank busy for write cycles: 0
Channel 0
Rank 0
0banks busy for read cycles: 79773675
0banks busy for write cycles: 17274
1banks busy for read cycles: 6298039
1banks busy for write cycles: 2529884
2banks busy for read cycles: 506198
2banks busy for write cycles: 133155
3banks busy for read cycles: 429033
3banks busy for write cycles: 73007
4banks busy for read cycles: 567380
4banks busy for write cycles: 45466
5banks busy for read cycles: 661002
5banks busy for write cycles: 32601
6banks busy for read cycles: 651248
6banks busy for write cycles: 30412
7banks busy for read cycles: 704999
7banks busy for write cycles: 95280
8banks busy for read cycles: 828740
8banks busy for write cycles: 1403069

CPU 0 Branch Prediction Accuracy: 99.9746% MPKI: 0.0287 Average ROB Occupancy at Mispredict: 60.2355
Branch types
NOT_BRANCH: 44355226 88.7105%
BRANCH_DIRECT_JUMP: 379197 0.758394%
BRANCH_INDIRECT: 0 0%
BRANCH_CONDITIONAL: 3748585 7.49717%
BRANCH_DIRECT_CALL: 758387 1.51677%
BRANCH_INDIRECT_CALL: 0 0%
BRANCH_RETURN: 758386 1.51677%
BRANCH_OTHER: 0 0%

DRAM PAGES: 1048576
Allocated PAGES: 10630
