
*** ChampSim Multicore Out-of-Order Simulator ***

Warmup Instructions: 50000000
Simulation Instructions: 50000000
Number of CPUs: 1
LLC sets: 2048
LLC ways: 16
Off-chip DRAM Size: 4096 MB Channels: 1 Width: 64-bit Data Rate: 6400 MT/s
CPU 0 runs ./traces/SPEC-CPU2017/654.roms_s-1007B.champsimtrace.xz
.xz
CPU 0 Bimodal branch predictor
BTB has LRU replacement policy
ITLB has LRU replacement policy
DTLB has LRU replacement policy
STLB has LRU replacement policy
L1I has LRU replacement policy
L1D has LRU replacement policy
L2C has LRU replacement policy
LLC has LRU replacement policy
Heartbeat CPU 0 instructions: 10000000 cycles: 3077773 heartbeat IPC: 3.2491 cumulative IPC: 3.2491 (Simulation time: 0 hr 7 min 48 sec) 
Heartbeat CPU 0 instructions: 20000000 cycles: 6155074 heartbeat IPC: 3.2496 cumulative IPC: 3.24935 (Simulation time: 0 hr 16 min 58 sec) 
Heartbeat CPU 0 instructions: 30000000 cycles: 9232707 heartbeat IPC: 3.24925 cumulative IPC: 3.24932 (Simulation time: 0 hr 26 min 14 sec) 
Heartbeat CPU 0 instructions: 40000000 cycles: 12310160 heartbeat IPC: 3.24944 cumulative IPC: 3.24935 (Simulation time: 0 hr 35 min 5 sec) 
Heartbeat CPU 0 instructions: 50000000 cycles: 15473561 heartbeat IPC: 3.16115 cumulative IPC: 3.23132 (Simulation time: 0 hr 45 min 41 sec) 

Warmup complete CPU 0 instructions: 50000004 cycles: 15473562 (Simulation time: 0 hr 45 min 41 sec) 

Heartbeat CPU 0 instructions: 60000000 cycles: 32105558 heartbeat IPC: 0.601251 cumulative IPC: 0.601251 (Simulation time: 0 hr 48 min 19 sec) 
Heartbeat CPU 0 instructions: 70000000 cycles: 51660703 heartbeat IPC: 0.511374 cumulative IPC: 0.552682 (Simulation time: 0 hr 50 min 41 sec) 
Heartbeat CPU 0 instructions: 80000000 cycles: 71210433 heartbeat IPC: 0.511516 cumulative IPC: 0.538243 (Simulation time: 0 hr 53 min 8 sec) 
Heartbeat CPU 0 instructions: 90000000 cycles: 90755851 heartbeat IPC: 0.511629 cumulative IPC: 0.531333 (Simulation time: 0 hr 55 min 39 sec) 
Heartbeat CPU 0 instructions: 100000000 cycles: 110289206 heartbeat IPC: 0.511945 cumulative IPC: 0.527339 (Simulation time: 0 hr 57 min 52 sec) 
Finished CPU 0 instructions: 50000001 cycles: 94815668 cumulative IPC: 0.527339 (Simulation time: 0 hr 57 min 52 sec) 

ChampSim completed all CPUs

Region of Interest Statistics

CPU 0 cumulative IPC: 0.527339 instructions: 50000001 cycles: 94815668
ITLB TOTAL     ACCESS:    8492175  HIT:    8492173  MISS:          2  HIT %:        100  MISS %: 2.35511e-05   MPKI: 4e-05
ITLB LOAD TRANSLATION ACCESS:    8492175  HIT:    8492173  MISS:          2  HIT %:        100  MISS %: 2.35511e-05   MPKI: 4e-05
ITLB PREFETCH  REQUESTED:          0  ISSUED:          0  USEFUL:          0  USELESS:          0
ITLB USEFUL LOAD PREFETCHES:          0 PREFETCH ISSUED TO LOWER LEVEL:          0  ACCURACY: -nan
ITLB TIMELY PREFETCHES:          0 LATE PREFETCHES: 0 DROPPED PREFETCHES: 0
ITLB PREFETCHES SAME FILL-ORIGIN LEVEL: 0 DIFFERENT FILL-ORIGIN LEVEL: 0
ITLB AVERAGE MISS LATENCY: 325.5 cycles
ITLB RQ	ACCESS:   10720126	FORWARD:          0	MERGED:    2227951	TO_CACHE:    8492175

DTLB TOTAL     ACCESS:   13680254  HIT:   13674378  MISS:       5876  HIT %:     99.957  MISS %:  0.0429524   MPKI: 0.11752
DTLB LOAD TRANSLATION ACCESS:   13680254  HIT:   13674378  MISS:       5876  HIT %:     99.957  MISS %:  0.0429524   MPKI: 0.11752
DTLB PREFETCH  REQUESTED:          0  ISSUED:          0  USEFUL:          0  USELESS:          0
DTLB USEFUL LOAD PREFETCHES:          0 PREFETCH ISSUED TO LOWER LEVEL:          0  ACCURACY: -nan
DTLB TIMELY PREFETCHES:          0 LATE PREFETCHES: 0 DROPPED PREFETCHES: 0
DTLB PREFETCHES SAME FILL-ORIGIN LEVEL: 0 DIFFERENT FILL-ORIGIN LEVEL: 0
DTLB AVERAGE MISS LATENCY: 178.807 cycles
DTLB RQ	ACCESS:   15455608	FORWARD:          0	MERGED:    1768081	TO_CACHE:   13687527

STLB TOTAL     ACCESS:     427466  HIT:     421598  MISS:       5868  HIT %:    98.6273  MISS %:    1.37274   MPKI: 0.11736
STLB LOAD TRANSLATION ACCESS:       5878  HIT:         10  MISS:       5868  HIT %:   0.170126  MISS %:    99.8299   MPKI: 0.11736
STLB TRANSLATION FROM L1D PREFETCHER ACCESS:     421588  HIT:     421588  MISS:          0  HIT %:        100  MISS %:          0   MPKI: 0
STLB PREFETCH  REQUESTED:          0  ISSUED:          0  USEFUL:          0  USELESS:          0
STLB USEFUL LOAD PREFETCHES:          0 PREFETCH ISSUED TO LOWER LEVEL:          0  ACCURACY: -nan
STLB TIMELY PREFETCHES:          0 LATE PREFETCHES: 0 DROPPED PREFETCHES: 0
STLB PREFETCHES SAME FILL-ORIGIN LEVEL: 0 DIFFERENT FILL-ORIGIN LEVEL: 0
STLB AVERAGE MISS LATENCY: 169.559 cycles
STLB RQ	ACCESS:    1746014	FORWARD:          0	MERGED:    1318548	TO_CACHE:     427466

STLB Hit, L1D data hit: 0
STLB Hit, L2C data hit: 0
STLB Hit, LLC data hit: 0
STLB Hit, LLC data miss: 0
STLB STLB hints to L2: 0
L1D TOTAL     ACCESS:   16774819  HIT:   16521674  MISS:     253145  HIT %:    98.4909  MISS %:    1.50908   MPKI: 5.0629
L1D LOAD      ACCESS:    9456770  HIT:    9442829  MISS:      13941  HIT %:    99.8526  MISS %:   0.147418   MPKI: 0.27882
L1D RFO       ACCESS:    5591304  HIT:    5506736  MISS:      84568  HIT %:    98.4875  MISS %:    1.51249   MPKI: 1.69136
L1D PREFETCH  ACCESS:    1726745  HIT:    1572109  MISS:     154636  HIT %:    91.0447  MISS %:    8.95535   MPKI: 3.09272
AGUS PREFETCH L1 MISS: 0
L1D PREFETCH  REQUESTED:    3869654  ISSUED:    3480272  USEFUL:     143467  USELESS:      11148
L1D USEFUL LOAD PREFETCHES:     143467 PREFETCH ISSUED TO LOWER LEVEL:     161584  ACCURACY: 88.7879
L1D TIMELY PREFETCHES:     143467 LATE PREFETCHES: 6949 DROPPED PREFETCHES: 0
L1D PREFETCHES SAME FILL-ORIGIN LEVEL: 161584 DIFFERENT FILL-ORIGIN LEVEL: 0
L1D AVERAGE MISS LATENCY: 277.438 cycles
L1D RQ	ACCESS:   11798427	FORWARD:          0	MERGED:    2264368	TO_CACHE:    9476512
L1D WQ	ACCESS:    6358286	FORWARD:      57547	MERGED:     379190	TO_CACHE:    5979096
L1D PQ	ACCESS:    1740136	FORWARD:          0	MERGED:          0	TO_CACHE:    1740136

L1D UNIQUE REGIONS ACCESSED: 0
L1D REGIONS CONFLICTS: 0
L1D Cross Page Prefetch Requests: 0
L1D Same Page Prefetch Requests: 3443566
L1D ROI Sum of L1D PQ occupancy: 27848405
L1D PREFETCHES PUSHED FROM L2C: 0
L1I TOTAL     ACCESS:   10720116  HIT:   10720080  MISS:         36  HIT %:    99.9997  MISS %: 0.000335817   MPKI: 0.00072
L1I LOAD      ACCESS:   10720116  HIT:   10720080  MISS:         36  HIT %:    99.9997  MISS %: 0.000335817   MPKI: 0.00072
L1I PREFETCH  REQUESTED:          0  ISSUED:          0  USEFUL:          0  USELESS:          0
L1I USEFUL LOAD PREFETCHES:          0 PREFETCH ISSUED TO LOWER LEVEL:          0  ACCURACY: -nan
L1I TIMELY PREFETCHES:          0 LATE PREFETCHES: 0 DROPPED PREFETCHES: 0
L1I PREFETCHES SAME FILL-ORIGIN LEVEL: 0 DIFFERENT FILL-ORIGIN LEVEL: 0
L1I AVERAGE MISS LATENCY: 232.694 cycles
L1I RQ	ACCESS:   14205102	FORWARD:          0	MERGED:    3484976	TO_CACHE:   10720126

BTB TOTAL     ACCESS:    3368722  HIT:    2989495  MISS:     379227  HIT %:    88.7427  MISS %:    11.2573   MPKI: 7.58454
BTB BRANCH_DIRECT_JUMP	ACCESS:     379197  HIT:     379193  MISS:          4
BTB BRANCH_INDIRECT	ACCESS:          0  HIT:          0  MISS:          0
BTB BRANCH_CONDITIONAL	ACCESS:    1472752  HIT:    1472732  MISS:         20
BTB BRANCH_DIRECT_CALL	ACCESS:     758387  HIT:     758379  MISS:          8
BTB BRANCH_INDIRECT_CALL	ACCESS:          0  HIT:          0  MISS:          0
BTB BRANCH_RETURN	ACCESS:     758386  HIT:     379191  MISS:     379195
BTB BRANCH_OTHER ACCESS:          0  HIT:          0  MISS:          0

L2C TOTAL     ACCESS:     343520  HIT:      89358  MISS:     254162  HIT %:    26.0125  MISS %:    73.9875   MPKI: 5.08324
L2C LOAD      ACCESS:       7027  HIT:         64  MISS:       6963  HIT %:   0.910773  MISS %:    99.0892   MPKI: 0.13926
L2C DATA LOAD MPKI: 0.13854
L2C INSTRUCTION LOAD MPKI: 0.00072
L2C RFO       ACCESS:      84568  HIT:          0  MISS:      84568  HIT %:          0  MISS %:        100   MPKI: 1.69136
L2C PREFETCH  ACCESS:     161585  HIT:        189  MISS:     161396  HIT %:   0.116966  MISS %:     99.883   MPKI: 3.22792
AGUS PREFETCH L1 MISS: 0
L2C DATA PREFETCH MPKI: 3.22792
L2C INSTRUCTION PREFETCH MPKI: 0
L2C WRITEBACK ACCESS:      84462  HIT:      84457  MISS:          5  HIT %:    99.9941  MISS %: 0.00591982   MPKI: 0.0001
L2C LOAD TRANSLATION ACCESS:       5878  HIT:       4648  MISS:       1230  HIT %:    79.0745  MISS %:    20.9255   MPKI: 0.0246
L2C PREFETCH  REQUESTED:          0  ISSUED:          0  USEFUL:          6  USELESS:     162110
L2C USEFUL LOAD PREFETCHES:          6 PREFETCH ISSUED TO LOWER LEVEL:     161395  ACCURACY: 0.00371759
L2C TIMELY PREFETCHES:          6 LATE PREFETCHES: 0 DROPPED PREFETCHES: 0
L2C PREFETCHES SAME FILL-ORIGIN LEVEL: 0 DIFFERENT FILL-ORIGIN LEVEL: 0
L2C AVERAGE MISS LATENCY: 261.944 cycles
L2C RQ	ACCESS:      97474	FORWARD:          0	MERGED:          0	TO_CACHE:      97473
L2C WQ	ACCESS:      84462	FORWARD:          1	MERGED:          0	TO_CACHE:      84462
L2C PQ	ACCESS:     161584	FORWARD:          0	MERGED:          0	TO_CACHE:     161584

L2C Instructions Evicting Data 36
L2C Translations Evicting Data 1229
L2C Data Evicting Data 251602
L2C Instructions Evicting Instructions 0
L2C Translations Evicting Instructions 0
L2C Data Evicting Instructions 36
L2C Instructions Evicting Translations 0
L2C Translations Evicting Translations 1
L2C Data Evicting Translations 1253
L2C Dense regions hint from L2: 0
PSCL5 TOTAL     ACCESS:       5868  HIT:       5868  MISS:          0  HIT %:        100  MISS %:          0   MPKI: 0
PSCL5 LOAD TRANSLATION ACCESS:       5868  HIT:       5868  MISS:          0  HIT %:        100  MISS %:          0   MPKI: 0
PSCL5 PREFETCH  REQUESTED:          0  ISSUED:          0  USEFUL:          0  USELESS:          0
PSCL5 USEFUL LOAD PREFETCHES:          0 PREFETCH ISSUED TO LOWER LEVEL:          0  ACCURACY: -nan
PSCL5 TIMELY PREFETCHES:          0 LATE PREFETCHES: 0 DROPPED PREFETCHES: 0
PSCL5 PREFETCHES SAME FILL-ORIGIN LEVEL: 0 DIFFERENT FILL-ORIGIN LEVEL: 0

PSCL4 TOTAL     ACCESS:       5868  HIT:       5868  MISS:          0  HIT %:        100  MISS %:          0   MPKI: 0
PSCL4 LOAD TRANSLATION ACCESS:       5868  HIT:       5868  MISS:          0  HIT %:        100  MISS %:          0   MPKI: 0
PSCL4 PREFETCH  REQUESTED:          0  ISSUED:          0  USEFUL:          0  USELESS:          0
PSCL4 USEFUL LOAD PREFETCHES:          0 PREFETCH ISSUED TO LOWER LEVEL:          0  ACCURACY: -nan
PSCL4 TIMELY PREFETCHES:          0 LATE PREFETCHES: 0 DROPPED PREFETCHES: 0
PSCL4 PREFETCHES SAME FILL-ORIGIN LEVEL: 0 DIFFERENT FILL-ORIGIN LEVEL: 0

PSCL3 TOTAL     ACCESS:       5868  HIT:       5867  MISS:          1  HIT %:     99.983  MISS %:  0.0170416   MPKI: 2e-05
PSCL3 LOAD TRANSLATION ACCESS:       5868  HIT:       5867  MISS:          1  HIT %:     99.983  MISS %:  0.0170416   MPKI: 2e-05
PSCL3 PREFETCH  REQUESTED:          0  ISSUED:          0  USEFUL:          0  USELESS:          0
PSCL3 USEFUL LOAD PREFETCHES:          0 PREFETCH ISSUED TO LOWER LEVEL:          0  ACCURACY: -nan
PSCL3 TIMELY PREFETCHES:          0 LATE PREFETCHES: 0 DROPPED PREFETCHES: 0
PSCL3 PREFETCHES SAME FILL-ORIGIN LEVEL: 0 DIFFERENT FILL-ORIGIN LEVEL: 0

PSCL2 TOTAL     ACCESS:       5868  HIT:       5843  MISS:         25  HIT %:     99.574  MISS %:    0.42604   MPKI: 0.0005
PSCL2 LOAD TRANSLATION ACCESS:       5868  HIT:       5843  MISS:         25  HIT %:     99.574  MISS %:    0.42604   MPKI: 0.0005
PSCL2 PREFETCH  REQUESTED:          0  ISSUED:          0  USEFUL:          0  USELESS:          0
PSCL2 USEFUL LOAD PREFETCHES:          0 PREFETCH ISSUED TO LOWER LEVEL:          0  ACCURACY: -nan
PSCL2 TIMELY PREFETCHES:          0 LATE PREFETCHES: 0 DROPPED PREFETCHES: 0
PSCL2 PREFETCHES SAME FILL-ORIGIN LEVEL: 0 DIFFERENT FILL-ORIGIN LEVEL: 0

LLC TOTAL     ACCESS:     337842  HIT:      83707  MISS:     254135  HIT %:     24.777  MISS %:     75.223   MPKI: 5.0827
LLC LOAD      ACCESS:       6963  HIT:          1  MISS:       6962  HIT %:  0.0143616  MISS %:    99.9856   MPKI: 0.13924
LLC RFO       ACCESS:      84568  HIT:          0  MISS:      84568  HIT %:          0  MISS %:        100   MPKI: 1.69136
LLC PREFETCH  ACCESS:     161396  HIT:         19  MISS:     161377  HIT %:  0.0117723  MISS %:    99.9882   MPKI: 3.22754
AGUS PREFETCH L1 MISS: 0
LLC WRITEBACK ACCESS:      83685  HIT:      83680  MISS:          5  HIT %:     99.994  MISS %: 0.00597479   MPKI: 0.0001
LLC LOAD TRANSLATION ACCESS:       1230  HIT:          7  MISS:       1223  HIT %:   0.569106  MISS %:    99.4309   MPKI: 0.02446
LLC PREFETCH  REQUESTED:          0  ISSUED:          0  USEFUL:          1  USELESS:     164021
LLC USEFUL LOAD PREFETCHES:          1 PREFETCH ISSUED TO LOWER LEVEL:     161377  ACCURACY: 0.000619667
LLC TIMELY PREFETCHES:          1 LATE PREFETCHES: 0 DROPPED PREFETCHES: 0
LLC PREFETCHES SAME FILL-ORIGIN LEVEL: 0 DIFFERENT FILL-ORIGIN LEVEL: 0
LLC AVERAGE MISS LATENCY: 229.621 cycles
LLC RQ	ACCESS:      92761	FORWARD:          0	MERGED:          0	TO_CACHE:      92761
LLC WQ	ACCESS:      83685	FORWARD:          0	MERGED:          0	TO_CACHE:      83685
LLC PQ	ACCESS:     161395	FORWARD:          0	MERGED:          0	TO_CACHE:     161395

LLC Dense regions hint to LLC: 0

RAW hits: 1663263
Loads Generated: 13461690
Loads sent to L1D: 11798427
Stores Generated: 6358280
Stores sent to L1D: 6358286
Major fault: 0 Minor fault: 10630
Allocated PAGES: 10630

stream: 
stream:times selected: 2581864
stream:pref_filled: 333241
stream:pref_useful: 313349
stream:pref_late: 6787
stream:misses: 1092
stream:misses_by_poll: 0

CS: 
CS:times selected: 454927
CS:pref_filled: 4718
CS:pref_useful: 4504
CS:pref_late: 45
CS:misses: 32264
CS:misses_by_poll: 4

CPLX: 
CPLX:times selected: 2125085
CPLX:pref_filled: 1122
CPLX:pref_useful: 152
CPLX:pref_late: 22
CPLX:misses: 5603
CPLX:misses_by_poll: 2

NL_L1: 
NL:times selected: 44
NL:pref_filled: 25
NL:pref_useful: 24
NL:pref_late: 5
NL:misses: 29
NL:misses_by_poll: 0

total selections: 5161920
total_filled: 154636
total_useful: 143467
total_late: 6987
total_polluted: 6
total_misses_after_warmup: 33687
conflicts: 47118

test: 755727

DRAM Statistics
 CHANNEL 0
 RQ ROW_BUFFER_HIT:      96654  ROW_BUFFER_MISS:     157476
 DBUS_CONGESTED:         44
 WQ ROW_BUFFER_HIT:       9544  ROW_BUFFER_MISS:      72275  FULL:          0

 AVG_CONGESTED_CYCLE: 5
 All warmup complete: 2
Channel 0 Bank busy for read cycles: 0
Channel 0 Bank busy for write cycles: 0
Channel 0
Rank 0
0banks busy for read cycles: 79910880
0banks busy for write cycles: 17217
1banks busy for read cycles: 6285681
1banks busy for write cycles: 2521004
2banks busy for read cycles: 437090
2banks busy for write cycles: 110313
3banks busy for read cycles: 404608
3banks busy for write cycles: 60178
4banks busy for read cycles: 563529
4banks busy for write cycles: 46303
5banks busy for read cycles: 649618
5banks busy for write cycles: 31367
6banks busy for read cycles: 661309
6banks busy for write cycles: 34009
7banks busy for read cycles: 730555
7banks busy for write cycles: 103905
8banks busy for read cycles: 836072
8banks busy for write cycles: 1412031

CPU 0 Branch Prediction Accuracy: 99.9746% MPKI: 0.0287 Average ROB Occupancy at Mispredict: 60.2927
Branch types
NOT_BRANCH: 44355226 88.7105%
BRANCH_DIRECT_JUMP: 379197 0.758394%
BRANCH_INDIRECT: 0 0%
BRANCH_CONDITIONAL: 3748585 7.49717%
BRANCH_DIRECT_CALL: 758387 1.51677%
BRANCH_INDIRECT_CALL: 0 0%
BRANCH_RETURN: 758386 1.51677%
BRANCH_OTHER: 0 0%

DRAM PAGES: 1048576
Allocated PAGES: 10630
