
*** ChampSim Multicore Out-of-Order Simulator ***

Warmup Instructions: 50000000
Simulation Instructions: 50000000
Number of CPUs: 1
LLC sets: 2048
LLC ways: 16
Off-chip DRAM Size: 4096 MB Channels: 1 Width: 64-bit Data Rate: 6400 MT/s
CPU 0 runs ./traces/SPEC-CPU2017/654.roms_s-1007B.champsimtrace.xz
.xz
CPU 0 Bimodal branch predictor
BTB has LRU replacement policy
ITLB has LRU replacement policy
DTLB has LRU replacement policy
STLB has LRU replacement policy
L1I has LRU replacement policy
L1D has LRU replacement policy
L2C has LRU replacement policy
LLC has LRU replacement policy
Heartbeat CPU 0 instructions: 10000000 cycles: 3077792 heartbeat IPC: 3.24908 cumulative IPC: 3.24908 (Simulation time: 0 hr 7 min 11 sec) 
Heartbeat CPU 0 instructions: 20000000 cycles: 6155087 heartbeat IPC: 3.24961 cumulative IPC: 3.24934 (Simulation time: 0 hr 14 min 30 sec) 
Heartbeat CPU 0 instructions: 30000000 cycles: 9232738 heartbeat IPC: 3.24923 cumulative IPC: 3.24931 (Simulation time: 0 hr 21 min 7 sec) 
Heartbeat CPU 0 instructions: 40000000 cycles: 12310199 heartbeat IPC: 3.24943 cumulative IPC: 3.24934 (Simulation time: 0 hr 26 min 16 sec) 
Heartbeat CPU 0 instructions: 50000000 cycles: 15473621 heartbeat IPC: 3.16113 cumulative IPC: 3.23131 (Simulation time: 0 hr 31 min 17 sec) 

Warmup complete CPU 0 instructions: 50000004 cycles: 15473622 (Simulation time: 0 hr 31 min 17 sec) 

Heartbeat CPU 0 instructions: 60000000 cycles: 32109856 heartbeat IPC: 0.601098 cumulative IPC: 0.601097 (Simulation time: 0 hr 32 min 49 sec) 
Heartbeat CPU 0 instructions: 70000000 cycles: 51665207 heartbeat IPC: 0.511369 cumulative IPC: 0.552615 (Simulation time: 0 hr 34 min 20 sec) 
Heartbeat CPU 0 instructions: 80000000 cycles: 71200846 heartbeat IPC: 0.511885 cumulative IPC: 0.538336 (Simulation time: 0 hr 35 min 44 sec) 
Heartbeat CPU 0 instructions: 90000000 cycles: 90723678 heartbeat IPC: 0.512221 cumulative IPC: 0.531561 (Simulation time: 0 hr 36 min 42 sec) 
Heartbeat CPU 0 instructions: 100000000 cycles: 110239133 heartbeat IPC: 0.512414 cumulative IPC: 0.527618 (Simulation time: 0 hr 37 min 58 sec) 
Finished CPU 0 instructions: 50000001 cycles: 94765535 cumulative IPC: 0.527618 (Simulation time: 0 hr 37 min 58 sec) 

ChampSim completed all CPUs

Region of Interest Statistics

CPU 0 cumulative IPC: 0.527618 instructions: 50000001 cycles: 94765535
ITLB TOTAL     ACCESS:    8491944  HIT:    8491942  MISS:          2  HIT %:        100  MISS %: 2.35517e-05   MPKI: 4e-05
ITLB LOAD TRANSLATION ACCESS:    8491944  HIT:    8491942  MISS:          2  HIT %:        100  MISS %: 2.35517e-05   MPKI: 4e-05
ITLB PREFETCH  REQUESTED:          0  ISSUED:          0  USEFUL:          0  USELESS:          0
ITLB USEFUL LOAD PREFETCHES:          0 PREFETCH ISSUED TO LOWER LEVEL:          0  ACCURACY: -nan
ITLB TIMELY PREFETCHES:          0 LATE PREFETCHES: 0 DROPPED PREFETCHES: 0
ITLB PREFETCHES SAME FILL-ORIGIN LEVEL: 0 DIFFERENT FILL-ORIGIN LEVEL: 0
ITLB AVERAGE MISS LATENCY: 325.5 cycles
ITLB RQ	ACCESS:   10719848	FORWARD:          0	MERGED:    2227904	TO_CACHE:    8491944

DTLB TOTAL     ACCESS:   13685356  HIT:   13679481  MISS:       5875  HIT %:    99.9571  MISS %:  0.0429291   MPKI: 0.1175
DTLB LOAD TRANSLATION ACCESS:   13685356  HIT:   13679481  MISS:       5875  HIT %:    99.9571  MISS %:  0.0429291   MPKI: 0.1175
DTLB PREFETCH  REQUESTED:          0  ISSUED:          0  USEFUL:          0  USELESS:          0
DTLB USEFUL LOAD PREFETCHES:          0 PREFETCH ISSUED TO LOWER LEVEL:          0  ACCURACY: -nan
DTLB TIMELY PREFETCHES:          0 LATE PREFETCHES: 0 DROPPED PREFETCHES: 0
DTLB PREFETCHES SAME FILL-ORIGIN LEVEL: 0 DIFFERENT FILL-ORIGIN LEVEL: 0
DTLB AVERAGE MISS LATENCY: 172.725 cycles
DTLB RQ	ACCESS:   15465704	FORWARD:          0	MERGED:    1773153	TO_CACHE:   13692551

STLB TOTAL     ACCESS:     397528  HIT:     391658  MISS:       5870  HIT %:    98.5234  MISS %:    1.47663   MPKI: 0.1174
STLB LOAD TRANSLATION ACCESS:       5877  HIT:        538  MISS:       5339  HIT %:    9.15433  MISS %:    90.8457   MPKI: 0.10678
STLB TRANSLATION FROM L1D PREFETCHER ACCESS:     391651  HIT:     391120  MISS:        531  HIT %:    99.8644  MISS %:    0.13558   MPKI: 0.01062
STLB PREFETCH  REQUESTED:          0  ISSUED:          0  USEFUL:        530  USELESS:          0
STLB USEFUL LOAD PREFETCHES:        530 PREFETCH ISSUED TO LOWER LEVEL:          0  ACCURACY: inf
STLB TIMELY PREFETCHES:        530 LATE PREFETCHES: 0 DROPPED PREFETCHES: 0
STLB PREFETCHES SAME FILL-ORIGIN LEVEL: 0 DIFFERENT FILL-ORIGIN LEVEL: 0
STLB AVERAGE MISS LATENCY: 168.134 cycles
STLB RQ	ACCESS:    1664392	FORWARD:          0	MERGED:    1266864	TO_CACHE:     397528

STLB Hit, L1D data hit: 0
STLB Hit, L2C data hit: 0
STLB Hit, LLC data hit: 0
STLB Hit, LLC data miss: 0
STLB STLB hints to L2: 0
L1D TOTAL     ACCESS:   16704203  HIT:   16450725  MISS:     253478  HIT %:    98.4825  MISS %:    1.51745   MPKI: 5.06956
L1D LOAD      ACCESS:    9467008  HIT:    9453481  MISS:      13527  HIT %:    99.8571  MISS %:   0.142886   MPKI: 0.27054
L1D RFO       ACCESS:    5591878  HIT:    5507270  MISS:      84608  HIT %:    98.4869  MISS %:    1.51305   MPKI: 1.69216
L1D PREFETCH  ACCESS:    1645317  HIT:    1489974  MISS:     155343  HIT %:    90.5585  MISS %:    9.44152   MPKI: 3.10686
AGUS PREFETCH L1 MISS: 0
L1D PREFETCH  REQUESTED:    3769297  ISSUED:    3317030  USEFUL:     143917  USELESS:      11414
L1D USEFUL LOAD PREFETCHES:     143917 PREFETCH ISSUED TO LOWER LEVEL:     162316  ACCURACY: 88.6647
L1D TIMELY PREFETCHES:     143917 LATE PREFETCHES: 6973 DROPPED PREFETCHES: 0
L1D PREFETCHES SAME FILL-ORIGIN LEVEL: 162316 DIFFERENT FILL-ORIGIN LEVEL: 0
L1D AVERAGE MISS LATENCY: 276.05 cycles
L1D RQ	ACCESS:   11798475	FORWARD:          0	MERGED:    2254276	TO_CACHE:    9486608
L1D WQ	ACCESS:    6358286	FORWARD:      57591	MERGED:     379190	TO_CACHE:    5979096
L1D PQ	ACCESS:    1658515	FORWARD:          0	MERGED:          0	TO_CACHE:    1658515

L1D UNIQUE REGIONS ACCESSED: 0
L1D REGIONS CONFLICTS: 0
L1D Cross Page Prefetch Requests: 18860
L1D Same Page Prefetch Requests: 3390470
L1D ROI Sum of L1D PQ occupancy: 26582437
L1D PREFETCHES PUSHED FROM L2C: 0
L1I TOTAL     ACCESS:   10719838  HIT:   10719802  MISS:         36  HIT %:    99.9997  MISS %: 0.000335826   MPKI: 0.00072
L1I LOAD      ACCESS:   10719838  HIT:   10719802  MISS:         36  HIT %:    99.9997  MISS %: 0.000335826   MPKI: 0.00072
L1I PREFETCH  REQUESTED:          0  ISSUED:          0  USEFUL:          0  USELESS:          0
L1I USEFUL LOAD PREFETCHES:          0 PREFETCH ISSUED TO LOWER LEVEL:          0  ACCURACY: -nan
L1I TIMELY PREFETCHES:          0 LATE PREFETCHES: 0 DROPPED PREFETCHES: 0
L1I PREFETCHES SAME FILL-ORIGIN LEVEL: 0 DIFFERENT FILL-ORIGIN LEVEL: 0
L1I AVERAGE MISS LATENCY: 233.306 cycles
L1I RQ	ACCESS:   14204716	FORWARD:          0	MERGED:    3484868	TO_CACHE:   10719848

BTB TOTAL     ACCESS:    3368722  HIT:    2989495  MISS:     379227  HIT %:    88.7427  MISS %:    11.2573   MPKI: 7.58454
BTB BRANCH_DIRECT_JUMP	ACCESS:     379197  HIT:     379193  MISS:          4
BTB BRANCH_INDIRECT	ACCESS:          0  HIT:          0  MISS:          0
BTB BRANCH_CONDITIONAL	ACCESS:    1472752  HIT:    1472732  MISS:         20
BTB BRANCH_DIRECT_CALL	ACCESS:     758387  HIT:     758379  MISS:          8
BTB BRANCH_INDIRECT_CALL	ACCESS:          0  HIT:          0  MISS:          0
BTB BRANCH_RETURN	ACCESS:     758386  HIT:     379191  MISS:     379195
BTB BRANCH_OTHER ACCESS:          0  HIT:          0  MISS:          0

L2C TOTAL     ACCESS:     343922  HIT:      90423  MISS:     253499  HIT %:    26.2917  MISS %:    73.7083   MPKI: 5.06998
L2C LOAD      ACCESS:       6590  HIT:        114  MISS:       6476  HIT %:    1.72989  MISS %:    98.2701   MPKI: 0.12952
L2C DATA LOAD MPKI: 0.1288
L2C INSTRUCTION LOAD MPKI: 0.00072
L2C RFO       ACCESS:      84608  HIT:         40  MISS:      84568  HIT %:  0.0472769  MISS %:    99.9527   MPKI: 1.69136
L2C PREFETCH  ACCESS:     162316  HIT:       1099  MISS:     161217  HIT %:   0.677074  MISS %:    99.3229   MPKI: 3.22434
AGUS PREFETCH L1 MISS: 0
L2C DATA PREFETCH MPKI: 3.22434
L2C INSTRUCTION PREFETCH MPKI: 0
L2C WRITEBACK ACCESS:      84528  HIT:      84519  MISS:          9  HIT %:    99.9894  MISS %:  0.0106474   MPKI: 0.00018
L2C LOAD TRANSLATION ACCESS:       5349  HIT:       4200  MISS:       1149  HIT %:    78.5193  MISS %:    21.4807   MPKI: 0.02298
L2C TRANSLATION FROM L1D PREFETCHER ACCESS:        531  HIT:        451  MISS:         80  HIT %:    84.9341  MISS %:    15.0659   MPKI: 0.0016
L2C PREFETCH  REQUESTED:          0  ISSUED:          0  USEFUL:        115  USELESS:     161776
L2C USEFUL LOAD PREFETCHES:        115 PREFETCH ISSUED TO LOWER LEVEL:     161217  ACCURACY: 0.0713324
L2C TIMELY PREFETCHES:        115 LATE PREFETCHES: 0 DROPPED PREFETCHES: 0
L2C PREFETCHES SAME FILL-ORIGIN LEVEL: 0 DIFFERENT FILL-ORIGIN LEVEL: 0
L2C AVERAGE MISS LATENCY: 261.582 cycles
L2C RQ	ACCESS:      97078	FORWARD:          0	MERGED:          0	TO_CACHE:      97078
L2C WQ	ACCESS:      84528	FORWARD:          0	MERGED:          0	TO_CACHE:      84528
L2C PQ	ACCESS:     162316	FORWARD:          0	MERGED:          0	TO_CACHE:     162316

L2C Instructions Evicting Data 36
L2C Translations Evicting Data 1228
L2C Data Evicting Data 250937
L2C Instructions Evicting Instructions 0
L2C Translations Evicting Instructions 0
L2C Data Evicting Instructions 36
L2C Instructions Evicting Translations 0
L2C Translations Evicting Translations 1
L2C Data Evicting Translations 1252
L2C Dense regions hint from L2: 0
PSCL5 TOTAL     ACCESS:       5870  HIT:       5870  MISS:          0  HIT %:        100  MISS %:          0   MPKI: 0
PSCL5 LOAD TRANSLATION ACCESS:       5339  HIT:       5339  MISS:          0  HIT %:        100  MISS %:          0   MPKI: 0
PSCL5 TRANSLATION FROM L1D PREFETCHER ACCESS:        531  HIT:        531  MISS:          0  HIT %:        100  MISS %:          0   MPKI: 0
PSCL5 PREFETCH  REQUESTED:          0  ISSUED:          0  USEFUL:          0  USELESS:          0
PSCL5 USEFUL LOAD PREFETCHES:          0 PREFETCH ISSUED TO LOWER LEVEL:          0  ACCURACY: -nan
PSCL5 TIMELY PREFETCHES:          0 LATE PREFETCHES: 0 DROPPED PREFETCHES: 0
PSCL5 PREFETCHES SAME FILL-ORIGIN LEVEL: 0 DIFFERENT FILL-ORIGIN LEVEL: 0

PSCL4 TOTAL     ACCESS:       5870  HIT:       5870  MISS:          0  HIT %:        100  MISS %:          0   MPKI: 0
PSCL4 LOAD TRANSLATION ACCESS:       5339  HIT:       5339  MISS:          0  HIT %:        100  MISS %:          0   MPKI: 0
PSCL4 TRANSLATION FROM L1D PREFETCHER ACCESS:        531  HIT:        531  MISS:          0  HIT %:        100  MISS %:          0   MPKI: 0
PSCL4 PREFETCH  REQUESTED:          0  ISSUED:          0  USEFUL:          0  USELESS:          0
PSCL4 USEFUL LOAD PREFETCHES:          0 PREFETCH ISSUED TO LOWER LEVEL:          0  ACCURACY: -nan
PSCL4 TIMELY PREFETCHES:          0 LATE PREFETCHES: 0 DROPPED PREFETCHES: 0
PSCL4 PREFETCHES SAME FILL-ORIGIN LEVEL: 0 DIFFERENT FILL-ORIGIN LEVEL: 0

PSCL3 TOTAL     ACCESS:       5870  HIT:       5869  MISS:          1  HIT %:     99.983  MISS %:  0.0170358   MPKI: 2e-05
PSCL3 LOAD TRANSLATION ACCESS:       5339  HIT:       5338  MISS:          1  HIT %:    99.9813  MISS %:  0.0187301   MPKI: 2e-05
PSCL3 TRANSLATION FROM L1D PREFETCHER ACCESS:        531  HIT:        531  MISS:          0  HIT %:        100  MISS %:          0   MPKI: 0
PSCL3 PREFETCH  REQUESTED:          0  ISSUED:          0  USEFUL:          0  USELESS:          0
PSCL3 USEFUL LOAD PREFETCHES:          0 PREFETCH ISSUED TO LOWER LEVEL:          0  ACCURACY: -nan
PSCL3 TIMELY PREFETCHES:          0 LATE PREFETCHES: 0 DROPPED PREFETCHES: 0
PSCL3 PREFETCHES SAME FILL-ORIGIN LEVEL: 0 DIFFERENT FILL-ORIGIN LEVEL: 0

PSCL2 TOTAL     ACCESS:       5870  HIT:       5845  MISS:         25  HIT %:    99.5741  MISS %:   0.425894   MPKI: 0.0005
PSCL2 LOAD TRANSLATION ACCESS:       5339  HIT:       5314  MISS:         25  HIT %:    99.5317  MISS %:   0.468252   MPKI: 0.0005
PSCL2 TRANSLATION FROM L1D PREFETCHER ACCESS:        531  HIT:        531  MISS:          0  HIT %:        100  MISS %:          0   MPKI: 0
PSCL2 PREFETCH  REQUESTED:          0  ISSUED:          0  USEFUL:          0  USELESS:          0
PSCL2 USEFUL LOAD PREFETCHES:          0 PREFETCH ISSUED TO LOWER LEVEL:          0  ACCURACY: -nan
PSCL2 TIMELY PREFETCHES:          0 LATE PREFETCHES: 0 DROPPED PREFETCHES: 0
PSCL2 PREFETCHES SAME FILL-ORIGIN LEVEL: 0 DIFFERENT FILL-ORIGIN LEVEL: 0

LLC TOTAL     ACCESS:     337170  HIT:      83694  MISS:     253476  HIT %:    24.8225  MISS %:    75.1775   MPKI: 5.06952
LLC LOAD      ACCESS:       6476  HIT:          2  MISS:       6474  HIT %:  0.0308833  MISS %:    99.9691   MPKI: 0.12948
LLC RFO       ACCESS:      84568  HIT:          0  MISS:      84568  HIT %:          0  MISS %:        100   MPKI: 1.69136
LLC PREFETCH  ACCESS:     161217  HIT:         14  MISS:     161203  HIT %: 0.00868395  MISS %:    99.9913   MPKI: 3.22406
AGUS PREFETCH L1 MISS: 0
LLC WRITEBACK ACCESS:      83680  HIT:      83672  MISS:          8  HIT %:    99.9904  MISS %: 0.00956023   MPKI: 0.00016
LLC LOAD TRANSLATION ACCESS:       1149  HIT:          6  MISS:       1143  HIT %:   0.522193  MISS %:    99.4778   MPKI: 0.02286
LLC TRANSLATION FROM L1D PREFETCHER ACCESS:         80  HIT:          0  MISS:         80  HIT %:          0  MISS %:        100   MPKI: 0.0016
LLC PREFETCH  REQUESTED:          0  ISSUED:          0  USEFUL:          2  USELESS:     163387
LLC USEFUL LOAD PREFETCHES:          2 PREFETCH ISSUED TO LOWER LEVEL:     161203  ACCURACY: 0.00124067
LLC TIMELY PREFETCHES:          2 LATE PREFETCHES: 0 DROPPED PREFETCHES: 0
LLC PREFETCHES SAME FILL-ORIGIN LEVEL: 0 DIFFERENT FILL-ORIGIN LEVEL: 0
LLC AVERAGE MISS LATENCY: 229.299 cycles
LLC RQ	ACCESS:      92273	FORWARD:          0	MERGED:          0	TO_CACHE:      92273
LLC WQ	ACCESS:      83680	FORWARD:          0	MERGED:          0	TO_CACHE:      83680
LLC PQ	ACCESS:     161217	FORWARD:          0	MERGED:          0	TO_CACHE:     161217

LLC Dense regions hint to LLC: 0

RAW hits: 1663215
Loads Generated: 13461690
Loads sent to L1D: 11798475
Stores Generated: 6358280
Stores sent to L1D: 6358286
Major fault: 0 Minor fault: 10630
Allocated PAGES: 10630

stream: 
stream:times selected: 2581904
stream:pref_reqs: 15305698
stream:pref_reqs_filtered_out: 11510311
stream:pref_filled: 332776
stream:pref_useful: 312436
stream:pref_late: 6748
stream:misses: 15
stream:misses_by_poll: 0

CS: 
CS:times selected: 486580
CS:pref_reqs: 1437066
CS:pref_reqs_filtered_out: 1353446
CS:pref_filled: 5574
CS:pref_useful: 5439
CS:pref_late: 92
CS:misses: 26266
CS:misses_by_poll: 5

CPLX: 
CPLX:times selected: 2093495
CPLX:pref_reqs: 5264577
CPLX:pref_reqs_filtered_out: 4879485
CPLX:pref_filled: 155
CPLX:pref_useful: 28
CPLX:pref_late: 2
CPLX:misses: 369
CPLX:misses_by_poll: 0

ISB: 
ISB:total access:17121238
ISB:times selected:1524075
ISB:canary counter:0
ISB:pref_reqs: 886838
ISB:pref_reqs_filtered_out: 770256
ISB:pref_filled: 731
ISB:pref_useful: 567
ISB:pref_late: 2
ISB:misses: 11789
ISB:misses_by_poll: 0
ISB:Stream end: 1414900
ISB:No Prediction: 15597163 91.0983
ISB:No translation: 1431061041
ISB:Predictions: 35218 0.205698

NL_L1: 
NL:times selected: 4
NL:pref_reqs: 4
NL:pref_reqs_filtered_out: 0
NL:pref_filled: 4
NL:pref_useful: 4
NL:pref_late: 0
NL:misses: 0
NL:misses_by_poll: 0

Coverage: 91.4084
total selections: 6686058
total_filled: 155343
total_useful: 143917
total_late: 7012
total_polluted: 5
total_misses_after_warmup: 33131
conflicts: 47122

test: 0
ISB Prefetcher final stats
Prefetcher final stats
Training Unit Size: 94
Addr table size: 18422 18423
Triggers: 17121238
Structural address exists: 1524075 8.90166
No Prediction: 15597163 91.0983
Prefetches issued: 35218 0.205698
Stream end: 1414900
No translation: 1431061041
%Stream divergence: 232 0.00135504
Stream divergence -- new stream: 0
A: 0
B: 0
C: 2581909
D: 2581909
E: 2581909
F: 0
G: 0

DRAM Statistics
 CHANNEL 0
 RQ ROW_BUFFER_HIT:      96096  ROW_BUFFER_MISS:     157372
 DBUS_CONGESTED:         49
 WQ ROW_BUFFER_HIT:       9478  ROW_BUFFER_MISS:      72318  FULL:          0

 AVG_CONGESTED_CYCLE: 5
 All warmup complete: 2
Channel 0 Bank busy for read cycles: 0
Channel 0 Bank busy for write cycles: 0
Channel 0
Rank 0
0banks busy for read cycles: 79792645
0banks busy for write cycles: 17305
1banks busy for read cycles: 6322377
1banks busy for write cycles: 2547377
2banks busy for read cycles: 452988
2banks busy for write cycles: 112721
3banks busy for read cycles: 409824
3banks busy for write cycles: 57832
4banks busy for read cycles: 571444
4banks busy for write cycles: 44267
5banks busy for read cycles: 659067
5banks busy for write cycles: 35454
6banks busy for read cycles: 662837
6banks busy for write cycles: 33782
7banks busy for read cycles: 714650
7banks busy for write cycles: 97447
8banks busy for read cycles: 821441
8banks busy for write cycles: 1412078

CPU 0 Branch Prediction Accuracy: 99.9746% MPKI: 0.0287 Average ROB Occupancy at Mispredict: 60.0906
Branch types
NOT_BRANCH: 44355226 88.7105%
BRANCH_DIRECT_JUMP: 379197 0.758394%
BRANCH_INDIRECT: 0 0%
BRANCH_CONDITIONAL: 3748585 7.49717%
BRANCH_DIRECT_CALL: 758387 1.51677%
BRANCH_INDIRECT_CALL: 0 0%
BRANCH_RETURN: 758386 1.51677%
BRANCH_OTHER: 0 0%

DRAM PAGES: 1048576
Allocated PAGES: 10630
