
*** ChampSim Multicore Out-of-Order Simulator ***

Warmup Instructions: 50000000
Simulation Instructions: 50000000
Number of CPUs: 1
LLC sets: 2048
LLC ways: 16
Off-chip DRAM Size: 4096 MB Channels: 1 Width: 64-bit Data Rate: 6400 MT/s
CPU 0 runs ./traces/SPEC-CPU2017/654.roms_s-1007B.champsimtrace.xz
.xz
CPU 0 Bimodal branch predictor
BTB has LRU replacement policy
ITLB has LRU replacement policy
DTLB has LRU replacement policy
STLB has LRU replacement policy
L1I has LRU replacement policy
L1D has LRU replacement policy
L2C has LRU replacement policy
LLC has LRU replacement policy
Heartbeat CPU 0 instructions: 10000000 cycles: 3078069 heartbeat IPC: 3.24879 cumulative IPC: 3.24879 (Simulation time: 0 hr 1 min 0 sec) 
Heartbeat CPU 0 instructions: 20000000 cycles: 6155727 heartbeat IPC: 3.24922 cumulative IPC: 3.24901 (Simulation time: 0 hr 2 min 5 sec) 
Heartbeat CPU 0 instructions: 30000000 cycles: 9233671 heartbeat IPC: 3.24892 cumulative IPC: 3.24898 (Simulation time: 0 hr 3 min 5 sec) 
Heartbeat CPU 0 instructions: 40000000 cycles: 12311478 heartbeat IPC: 3.24907 cumulative IPC: 3.249 (Simulation time: 0 hr 4 min 7 sec) 
Heartbeat CPU 0 instructions: 50000000 cycles: 15478543 heartbeat IPC: 3.1575 cumulative IPC: 3.23028 (Simulation time: 0 hr 5 min 20 sec) 

Warmup complete CPU 0 instructions: 50000004 cycles: 15478544 (Simulation time: 0 hr 5 min 20 sec) 

Heartbeat CPU 0 instructions: 60000000 cycles: 33854064 heartbeat IPC: 0.544202 cumulative IPC: 0.544202 (Simulation time: 0 hr 6 min 53 sec) 
Heartbeat CPU 0 instructions: 70000000 cycles: 53525689 heartbeat IPC: 0.508346 cumulative IPC: 0.525663 (Simulation time: 0 hr 8 min 25 sec) 
Heartbeat CPU 0 instructions: 80000000 cycles: 73161725 heartbeat IPC: 0.509268 cumulative IPC: 0.520082 (Simulation time: 0 hr 9 min 58 sec) 
Heartbeat CPU 0 instructions: 90000000 cycles: 92782039 heartbeat IPC: 0.509676 cumulative IPC: 0.517441 (Simulation time: 0 hr 11 min 16 sec) 
Heartbeat CPU 0 instructions: 100000000 cycles: 112391879 heartbeat IPC: 0.509948 cumulative IPC: 0.515925 (Simulation time: 0 hr 12 min 30 sec) 
Finished CPU 0 instructions: 50000001 cycles: 96913359 cumulative IPC: 0.515925 (Simulation time: 0 hr 12 min 30 sec) 

ChampSim completed all CPUs

Region of Interest Statistics

CPU 0 cumulative IPC: 0.515925 instructions: 50000001 cycles: 96913359
ITLB TOTAL     ACCESS:    8512270  HIT:    8512268  MISS:          2  HIT %:        100  MISS %: 2.34955e-05   MPKI: 4e-05
ITLB LOAD TRANSLATION ACCESS:    8512270  HIT:    8512268  MISS:          2  HIT %:        100  MISS %: 2.34955e-05   MPKI: 4e-05
ITLB PREFETCH  REQUESTED:          0  ISSUED:          0  USEFUL:          0  USELESS:          0
ITLB USEFUL LOAD PREFETCHES:          0 PREFETCH ISSUED TO LOWER LEVEL:          0  ACCURACY: -nan
ITLB TIMELY PREFETCHES:          0 LATE PREFETCHES: 0 DROPPED PREFETCHES: 0
ITLB PREFETCHES SAME FILL-ORIGIN LEVEL: 0 DIFFERENT FILL-ORIGIN LEVEL: 0
ITLB AVERAGE MISS LATENCY: 325.5 cycles
ITLB RQ	ACCESS:   10732835	FORWARD:          0	MERGED:    2220565	TO_CACHE:    8512270

DTLB TOTAL     ACCESS:   13541523  HIT:   13535646  MISS:       5877  HIT %:    99.9566  MISS %:  0.0433998   MPKI: 0.11754
DTLB LOAD TRANSLATION ACCESS:   13541523  HIT:   13535646  MISS:       5877  HIT %:    99.9566  MISS %:  0.0433998   MPKI: 0.11754
DTLB PREFETCH  REQUESTED:          0  ISSUED:          0  USEFUL:          0  USELESS:          0
DTLB USEFUL LOAD PREFETCHES:          0 PREFETCH ISSUED TO LOWER LEVEL:          0  ACCURACY: -nan
DTLB TIMELY PREFETCHES:          0 LATE PREFETCHES: 0 DROPPED PREFETCHES: 0
DTLB PREFETCHES SAME FILL-ORIGIN LEVEL: 0 DIFFERENT FILL-ORIGIN LEVEL: 0
DTLB AVERAGE MISS LATENCY: 163.464 cycles
DTLB RQ	ACCESS:   15266725	FORWARD:          0	MERGED:    1717434	TO_CACHE:   13549291

STLB TOTAL     ACCESS:      36550  HIT:      30681  MISS:       5869  HIT %:    83.9425  MISS %:    16.0575   MPKI: 0.11738
STLB LOAD TRANSLATION ACCESS:       5879  HIT:        351  MISS:       5528  HIT %:     5.9704  MISS %:    94.0296   MPKI: 0.11056
STLB TRANSLATION FROM L1D PREFETCHER ACCESS:      30671  HIT:      30330  MISS:        341  HIT %:    98.8882  MISS %:     1.1118   MPKI: 0.00682
STLB PREFETCH  REQUESTED:          0  ISSUED:          0  USEFUL:        341  USELESS:          0
STLB USEFUL LOAD PREFETCHES:        341 PREFETCH ISSUED TO LOWER LEVEL:          0  ACCURACY: inf
STLB TIMELY PREFETCHES:        341 LATE PREFETCHES: 0 DROPPED PREFETCHES: 0
STLB PREFETCHES SAME FILL-ORIGIN LEVEL: 0 DIFFERENT FILL-ORIGIN LEVEL: 0
STLB AVERAGE MISS LATENCY: 157.875 cycles
STLB RQ	ACCESS:     149947	FORWARD:          0	MERGED:     113397	TO_CACHE:      36550

STLB Hit, L1D data hit: 0
STLB Hit, L2C data hit: 0
STLB Hit, LLC data hit: 0
STLB Hit, LLC data miss: 0
STLB STLB hints to L2: 0
L1D TOTAL     ACCESS:   14996417  HIT:   14746640  MISS:     249777  HIT %:    98.3344  MISS %:    1.66558   MPKI: 4.99554
L1D LOAD      ACCESS:    9238100  HIT:    9204118  MISS:      33982  HIT %:    99.6322  MISS %:   0.367846   MPKI: 0.67964
L1D RFO       ACCESS:    5623219  HIT:    5538639  MISS:      84580  HIT %:    98.4959  MISS %:    1.50412   MPKI: 1.6916
L1D PREFETCH  ACCESS:     135098  HIT:       3883  MISS:     131215  HIT %:    2.87421  MISS %:    97.1258   MPKI: 2.6243
AGUS PREFETCH L1 MISS: 0
L1D PREFETCH  REQUESTED:     296172  ISSUED:     288136  USEFUL:     123381  USELESS:       7853
L1D USEFUL LOAD PREFETCHES:     123381 PREFETCH ISSUED TO LOWER LEVEL:     137308  ACCURACY: 89.8571
L1D TIMELY PREFETCHES:     123381 LATE PREFETCHES: 6093 DROPPED PREFETCHES: 0
L1D PREFETCHES SAME FILL-ORIGIN LEVEL: 137308 DIFFERENT FILL-ORIGIN LEVEL: 0
L1D AVERAGE MISS LATENCY: 237.436 cycles
L1D RQ	ACCESS:   11797591	FORWARD:          0	MERGED:    2453195	TO_CACHE:    9287629
L1D WQ	ACCESS:    6358286	FORWARD:      56767	MERGED:     379190	TO_CACHE:    5979096
L1D PQ	ACCESS:     144068	FORWARD:          0	MERGED:          0	TO_CACHE:     144068

L1D UNIQUE REGIONS ACCESSED: 0
L1D REGIONS CONFLICTS: 0
L1D Cross Page Prefetch Requests: 1037
L1D Same Page Prefetch Requests: 306352
L1D ROI Sum of L1D PQ occupancy: 2362952
L1D PREFETCHES PUSHED FROM L2C: 0
L1I TOTAL     ACCESS:   10732825  HIT:   10732789  MISS:         36  HIT %:    99.9997  MISS %: 0.00033542   MPKI: 0.00072
L1I LOAD      ACCESS:   10732825  HIT:   10732789  MISS:         36  HIT %:    99.9997  MISS %: 0.00033542   MPKI: 0.00072
L1I PREFETCH  REQUESTED:          0  ISSUED:          0  USEFUL:          0  USELESS:          0
L1I USEFUL LOAD PREFETCHES:          0 PREFETCH ISSUED TO LOWER LEVEL:          0  ACCURACY: -nan
L1I TIMELY PREFETCHES:          0 LATE PREFETCHES: 0 DROPPED PREFETCHES: 0
L1I PREFETCHES SAME FILL-ORIGIN LEVEL: 0 DIFFERENT FILL-ORIGIN LEVEL: 0
L1I AVERAGE MISS LATENCY: 232.028 cycles
L1I RQ	ACCESS:   14239834	FORWARD:          0	MERGED:    3506999	TO_CACHE:   10732835

BTB TOTAL     ACCESS:    3368722  HIT:    2989495  MISS:     379227  HIT %:    88.7427  MISS %:    11.2573   MPKI: 7.58454
BTB BRANCH_DIRECT_JUMP	ACCESS:     379197  HIT:     379193  MISS:          4
BTB BRANCH_INDIRECT	ACCESS:          0  HIT:          0  MISS:          0
BTB BRANCH_CONDITIONAL	ACCESS:    1472752  HIT:    1472732  MISS:         20
BTB BRANCH_DIRECT_CALL	ACCESS:     758387  HIT:     758379  MISS:          8
BTB BRANCH_INDIRECT_CALL	ACCESS:          0  HIT:          0  MISS:          0
BTB BRANCH_RETURN	ACCESS:     758386  HIT:     379191  MISS:     379195
BTB BRANCH_OTHER ACCESS:          0  HIT:          0  MISS:          0

L2C TOTAL     ACCESS:     340108  HIT:      89154  MISS:     250954  HIT %:    26.2134  MISS %:    73.7866   MPKI: 5.01908
L2C LOAD      ACCESS:      27925  HIT:         37  MISS:      27888  HIT %:   0.132498  MISS %:    99.8675   MPKI: 0.55776
L2C DATA LOAD MPKI: 0.55704
L2C INSTRUCTION LOAD MPKI: 0.00072
L2C RFO       ACCESS:      84580  HIT:          0  MISS:      84580  HIT %:          0  MISS %:        100   MPKI: 1.6916
L2C PREFETCH  ACCESS:     137308  HIT:         57  MISS:     137251  HIT %:  0.0415125  MISS %:    99.9585   MPKI: 2.74502
AGUS PREFETCH L1 MISS: 0
L2C DATA PREFETCH MPKI: 2.74502
L2C INSTRUCTION PREFETCH MPKI: 0
L2C WRITEBACK ACCESS:      84416  HIT:      84411  MISS:          5  HIT %:    99.9941  MISS %: 0.00592305   MPKI: 0.0001
L2C LOAD TRANSLATION ACCESS:       5538  HIT:       4366  MISS:       1172  HIT %:    78.8371  MISS %:    21.1629   MPKI: 0.02344
L2C TRANSLATION FROM L1D PREFETCHER ACCESS:        341  HIT:        283  MISS:         58  HIT %:    82.9912  MISS %:    17.0088   MPKI: 0.00116
L2C PREFETCH  REQUESTED:          0  ISSUED:          0  USEFUL:         72  USELESS:     137737
L2C USEFUL LOAD PREFETCHES:         72 PREFETCH ISSUED TO LOWER LEVEL:     137251  ACCURACY: 0.0524586
L2C TIMELY PREFETCHES:         72 LATE PREFETCHES: 0 DROPPED PREFETCHES: 0
L2C PREFETCHES SAME FILL-ORIGIN LEVEL: 0 DIFFERENT FILL-ORIGIN LEVEL: 0
L2C AVERAGE MISS LATENCY: 221.292 cycles
L2C RQ	ACCESS:     118384	FORWARD:          0	MERGED:          0	TO_CACHE:     118384
L2C WQ	ACCESS:      84416	FORWARD:          0	MERGED:          0	TO_CACHE:      84416
L2C PQ	ACCESS:     137308	FORWARD:          0	MERGED:          0	TO_CACHE:     137308

L2C Instructions Evicting Data 36
L2C Translations Evicting Data 1229
L2C Data Evicting Data 248392
L2C Instructions Evicting Instructions 0
L2C Translations Evicting Instructions 0
L2C Data Evicting Instructions 36
L2C Instructions Evicting Translations 0
L2C Translations Evicting Translations 1
L2C Data Evicting Translations 1255
L2C Dense regions hint from L2: 0
PSCL5 TOTAL     ACCESS:       5869  HIT:       5869  MISS:          0  HIT %:        100  MISS %:          0   MPKI: 0
PSCL5 LOAD TRANSLATION ACCESS:       5528  HIT:       5528  MISS:          0  HIT %:        100  MISS %:          0   MPKI: 0
PSCL5 TRANSLATION FROM L1D PREFETCHER ACCESS:        341  HIT:        341  MISS:          0  HIT %:        100  MISS %:          0   MPKI: 0
PSCL5 PREFETCH  REQUESTED:          0  ISSUED:          0  USEFUL:          0  USELESS:          0
PSCL5 USEFUL LOAD PREFETCHES:          0 PREFETCH ISSUED TO LOWER LEVEL:          0  ACCURACY: -nan
PSCL5 TIMELY PREFETCHES:          0 LATE PREFETCHES: 0 DROPPED PREFETCHES: 0
PSCL5 PREFETCHES SAME FILL-ORIGIN LEVEL: 0 DIFFERENT FILL-ORIGIN LEVEL: 0

PSCL4 TOTAL     ACCESS:       5869  HIT:       5869  MISS:          0  HIT %:        100  MISS %:          0   MPKI: 0
PSCL4 LOAD TRANSLATION ACCESS:       5528  HIT:       5528  MISS:          0  HIT %:        100  MISS %:          0   MPKI: 0
PSCL4 TRANSLATION FROM L1D PREFETCHER ACCESS:        341  HIT:        341  MISS:          0  HIT %:        100  MISS %:          0   MPKI: 0
PSCL4 PREFETCH  REQUESTED:          0  ISSUED:          0  USEFUL:          0  USELESS:          0
PSCL4 USEFUL LOAD PREFETCHES:          0 PREFETCH ISSUED TO LOWER LEVEL:          0  ACCURACY: -nan
PSCL4 TIMELY PREFETCHES:          0 LATE PREFETCHES: 0 DROPPED PREFETCHES: 0
PSCL4 PREFETCHES SAME FILL-ORIGIN LEVEL: 0 DIFFERENT FILL-ORIGIN LEVEL: 0

PSCL3 TOTAL     ACCESS:       5869  HIT:       5868  MISS:          1  HIT %:     99.983  MISS %:  0.0170387   MPKI: 2e-05
PSCL3 LOAD TRANSLATION ACCESS:       5528  HIT:       5527  MISS:          1  HIT %:    99.9819  MISS %:  0.0180897   MPKI: 2e-05
PSCL3 TRANSLATION FROM L1D PREFETCHER ACCESS:        341  HIT:        341  MISS:          0  HIT %:        100  MISS %:          0   MPKI: 0
PSCL3 PREFETCH  REQUESTED:          0  ISSUED:          0  USEFUL:          0  USELESS:          0
PSCL3 USEFUL LOAD PREFETCHES:          0 PREFETCH ISSUED TO LOWER LEVEL:          0  ACCURACY: -nan
PSCL3 TIMELY PREFETCHES:          0 LATE PREFETCHES: 0 DROPPED PREFETCHES: 0
PSCL3 PREFETCHES SAME FILL-ORIGIN LEVEL: 0 DIFFERENT FILL-ORIGIN LEVEL: 0

PSCL2 TOTAL     ACCESS:       5869  HIT:       5844  MISS:         25  HIT %:     99.574  MISS %:   0.425967   MPKI: 0.0005
PSCL2 LOAD TRANSLATION ACCESS:       5528  HIT:       5503  MISS:         25  HIT %:    99.5478  MISS %:   0.452243   MPKI: 0.0005
PSCL2 TRANSLATION FROM L1D PREFETCHER ACCESS:        341  HIT:        341  MISS:          0  HIT %:        100  MISS %:          0   MPKI: 0
PSCL2 PREFETCH  REQUESTED:          0  ISSUED:          0  USEFUL:          0  USELESS:          0
PSCL2 USEFUL LOAD PREFETCHES:          0 PREFETCH ISSUED TO LOWER LEVEL:          0  ACCURACY: -nan
PSCL2 TIMELY PREFETCHES:          0 LATE PREFETCHES: 0 DROPPED PREFETCHES: 0
PSCL2 PREFETCHES SAME FILL-ORIGIN LEVEL: 0 DIFFERENT FILL-ORIGIN LEVEL: 0

LLC TOTAL     ACCESS:     334620  HIT:      83679  MISS:     250941  HIT %:    25.0072  MISS %:    74.9928   MPKI: 5.01882
LLC LOAD      ACCESS:      27888  HIT:          5  MISS:      27883  HIT %:  0.0179289  MISS %:    99.9821   MPKI: 0.55766
LLC RFO       ACCESS:      84580  HIT:          0  MISS:      84580  HIT %:          0  MISS %:        100   MPKI: 1.6916
LLC PREFETCH  ACCESS:     137251  HIT:          0  MISS:     137251  HIT %:          0  MISS %:        100   MPKI: 2.74502
AGUS PREFETCH L1 MISS: 0
LLC WRITEBACK ACCESS:      83671  HIT:      83667  MISS:          4  HIT %:    99.9952  MISS %: 0.00478063   MPKI: 8e-05
LLC LOAD TRANSLATION ACCESS:       1172  HIT:          7  MISS:       1165  HIT %:    0.59727  MISS %:    99.4027   MPKI: 0.0233
LLC TRANSLATION FROM L1D PREFETCHER ACCESS:         58  HIT:          0  MISS:         58  HIT %:          0  MISS %:        100   MPKI: 0.00116
LLC PREFETCH  REQUESTED:          0  ISSUED:          0  USEFUL:          0  USELESS:     139168
LLC USEFUL LOAD PREFETCHES:          0 PREFETCH ISSUED TO LOWER LEVEL:     137251  ACCURACY: 0
LLC TIMELY PREFETCHES:          0 LATE PREFETCHES: 0 DROPPED PREFETCHES: 0
LLC PREFETCHES SAME FILL-ORIGIN LEVEL: 0 DIFFERENT FILL-ORIGIN LEVEL: 0
LLC AVERAGE MISS LATENCY: 189.882 cycles
LLC RQ	ACCESS:     113698	FORWARD:          0	MERGED:          0	TO_CACHE:     113698
LLC WQ	ACCESS:      83671	FORWARD:          0	MERGED:          0	TO_CACHE:      83671
LLC PQ	ACCESS:     137251	FORWARD:          0	MERGED:          0	TO_CACHE:     137251

LLC Dense regions hint to LLC: 0

RAW hits: 1664099
Loads Generated: 13461690
Loads sent to L1D: 11797591
Stores Generated: 6358280
Stores sent to L1D: 6358286
Major fault: 0 Minor fault: 10630
Allocated PAGES: 10630

stream: 
stream:times selected: 63964
stream:pref_filled: 252938
stream:pref_useful: 243496
stream:pref_late: 5952
stream:misses: 11484
stream:misses_by_poll: 0

CS: 
CS:times selected: 10393
CS:pref_filled: 10808
CS:pref_useful: 9815
CS:pref_late: 3
CS:misses: 15914
CS:misses_by_poll: 13

CPLX: 
CPLX:times selected: 53418
CPLX:pref_filled: 21353
CPLX:pref_useful: 18226
CPLX:pref_late: 27
CPLX:misses: 86169
CPLX:misses_by_poll: 48

NL_L1: 
NL:times selected: 161
NL:pref_filled: 139
NL:pref_useful: 138
NL:pref_late: 10
NL:misses: 195
NL:misses_by_poll: 0

Coverage: 78.4053
total selections: 127936
total_filled: 131215
total_useful: 123381
total_late: 6178
total_polluted: 61
total_misses_after_warmup: 83515
conflicts: 71

test: 8404
ISB Prefetcher final stats
Training Unit Size: 16
Addr table size: 62630 62630


Triggers: 63970
No Prediction: 62631 97.9068
Stream end: 355
No translation: 315153 492.657
Predictions: 1793 2.80288


Stream divergence: 1550 2.42301
Stream divergence -- new stream: 0

DRAM Statistics
 CHANNEL 0
 RQ ROW_BUFFER_HIT:      75627  ROW_BUFFER_MISS:     175310
 DBUS_CONGESTED:         48
 WQ ROW_BUFFER_HIT:       9917  ROW_BUFFER_MISS:      71884  FULL:          0

 AVG_CONGESTED_CYCLE: 6
 All warmup complete: 2
Channel 0 Bank busy for read cycles: 0
Channel 0 Bank busy for write cycles: 0
Channel 0
Rank 0
0banks busy for read cycles: 83822737
0banks busy for write cycles: 12260
1banks busy for read cycles: 3782858
1banks busy for write cycles: 1517125
2banks busy for read cycles: 1172451
2banks busy for write cycles: 113606
3banks busy for read cycles: 848659
3banks busy for write cycles: 91223
4banks busy for read cycles: 658414
4banks busy for write cycles: 79297
5banks busy for read cycles: 451480
5banks busy for write cycles: 71214
6banks busy for read cycles: 547408
6banks busy for write cycles: 70082
7banks busy for read cycles: 886546
7banks busy for write cycles: 118141
8banks busy for read cycles: 924242
8banks busy for write cycles: 1745617

CPU 0 Branch Prediction Accuracy: 99.9746% MPKI: 0.0287 Average ROB Occupancy at Mispredict: 102.904
Branch types
NOT_BRANCH: 44355226 88.7105%
BRANCH_DIRECT_JUMP: 379197 0.758394%
BRANCH_INDIRECT: 0 0%
BRANCH_CONDITIONAL: 3748585 7.49717%
BRANCH_DIRECT_CALL: 758387 1.51677%
BRANCH_INDIRECT_CALL: 0 0%
BRANCH_RETURN: 758386 1.51677%
BRANCH_OTHER: 0 0%

DRAM PAGES: 1048576
Allocated PAGES: 10630
