
*** ChampSim Multicore Out-of-Order Simulator ***

Warmup Instructions: 50000000
Simulation Instructions: 50000000
Number of CPUs: 1
LLC sets: 2048
LLC ways: 16
Off-chip DRAM Size: 4096 MB Channels: 1 Width: 64-bit Data Rate: 6400 MT/s
CPU 0 runs ./traces/SPEC-CPU2017/654.roms_s-1007B.champsimtrace.xz
.xz
CPU 0 Bimodal branch predictor
BTB has LRU replacement policy
ITLB has LRU replacement policy
DTLB has LRU replacement policy
STLB has LRU replacement policy
L1I has LRU replacement policy
L1D has LRU replacement policy
L2C has LRU replacement policy
LLC has LRU replacement policy
Heartbeat CPU 0 instructions: 10000000 cycles: 3077819 heartbeat IPC: 3.24905 cumulative IPC: 3.24905 (Simulation time: 0 hr 6 min 34 sec) 
Heartbeat CPU 0 instructions: 20000000 cycles: 6155172 heartbeat IPC: 3.24955 cumulative IPC: 3.2493 (Simulation time: 0 hr 12 min 18 sec) 
Heartbeat CPU 0 instructions: 30000000 cycles: 9232855 heartbeat IPC: 3.2492 cumulative IPC: 3.24927 (Simulation time: 0 hr 18 min 43 sec) 
Heartbeat CPU 0 instructions: 40000000 cycles: 12310370 heartbeat IPC: 3.24937 cumulative IPC: 3.24929 (Simulation time: 0 hr 24 min 35 sec) 
Heartbeat CPU 0 instructions: 50000000 cycles: 15473796 heartbeat IPC: 3.16113 cumulative IPC: 3.23127 (Simulation time: 0 hr 34 min 0 sec) 

Warmup complete CPU 0 instructions: 50000004 cycles: 15473797 (Simulation time: 0 hr 34 min 0 sec) 

Heartbeat CPU 0 instructions: 60000000 cycles: 32098405 heartbeat IPC: 0.601518 cumulative IPC: 0.601518 (Simulation time: 0 hr 38 min 54 sec) 
Heartbeat CPU 0 instructions: 70000000 cycles: 51652637 heartbeat IPC: 0.511398 cumulative IPC: 0.552809 (Simulation time: 0 hr 43 min 22 sec) 
Heartbeat CPU 0 instructions: 80000000 cycles: 71184895 heartbeat IPC: 0.511974 cumulative IPC: 0.538492 (Simulation time: 0 hr 47 min 1 sec) 
Heartbeat CPU 0 instructions: 90000000 cycles: 90703282 heartbeat IPC: 0.512337 cumulative IPC: 0.531706 (Simulation time: 0 hr 50 min 28 sec) 
Heartbeat CPU 0 instructions: 100000000 cycles: 110214354 heartbeat IPC: 0.512529 cumulative IPC: 0.527757 (Simulation time: 0 hr 53 min 49 sec) 
Finished CPU 0 instructions: 50000001 cycles: 94740581 cumulative IPC: 0.527757 (Simulation time: 0 hr 53 min 49 sec) 

ChampSim completed all CPUs

Region of Interest Statistics

CPU 0 cumulative IPC: 0.527757 instructions: 50000001 cycles: 94740581
ITLB TOTAL     ACCESS:    8491923  HIT:    8491921  MISS:          2  HIT %:        100  MISS %: 2.35518e-05   MPKI: 4e-05
ITLB LOAD TRANSLATION ACCESS:    8491923  HIT:    8491921  MISS:          2  HIT %:        100  MISS %: 2.35518e-05   MPKI: 4e-05
ITLB PREFETCH  REQUESTED:          0  ISSUED:          0  USEFUL:          0  USELESS:          0
ITLB USEFUL LOAD PREFETCHES:          0 PREFETCH ISSUED TO LOWER LEVEL:          0  ACCURACY: -nan
ITLB TIMELY PREFETCHES:          0 LATE PREFETCHES: 0 DROPPED PREFETCHES: 0
ITLB PREFETCHES SAME FILL-ORIGIN LEVEL: 0 DIFFERENT FILL-ORIGIN LEVEL: 0
ITLB AVERAGE MISS LATENCY: 325.5 cycles
ITLB RQ	ACCESS:   10719891	FORWARD:          0	MERGED:    2227968	TO_CACHE:    8491923

DTLB TOTAL     ACCESS:   13686160  HIT:   13680285  MISS:       5875  HIT %:    99.9571  MISS %:  0.0429266   MPKI: 0.1175
DTLB LOAD TRANSLATION ACCESS:   13686160  HIT:   13680285  MISS:       5875  HIT %:    99.9571  MISS %:  0.0429266   MPKI: 0.1175
DTLB PREFETCH  REQUESTED:          0  ISSUED:          0  USEFUL:          0  USELESS:          0
DTLB USEFUL LOAD PREFETCHES:          0 PREFETCH ISSUED TO LOWER LEVEL:          0  ACCURACY: -nan
DTLB TIMELY PREFETCHES:          0 LATE PREFETCHES: 0 DROPPED PREFETCHES: 0
DTLB PREFETCHES SAME FILL-ORIGIN LEVEL: 0 DIFFERENT FILL-ORIGIN LEVEL: 0
DTLB AVERAGE MISS LATENCY: 175.417 cycles
DTLB RQ	ACCESS:   15468632	FORWARD:          0	MERGED:    1775139	TO_CACHE:   13693493

STLB TOTAL     ACCESS:    1475392  HIT:    1469522  MISS:       5870  HIT %:    99.6021  MISS %:    0.39786   MPKI: 0.1174
STLB LOAD TRANSLATION ACCESS:       5877  HIT:        546  MISS:       5331  HIT %:    9.29045  MISS %:    90.7095   MPKI: 0.10662
STLB TRANSLATION FROM L1D PREFETCHER ACCESS:    1469515  HIT:    1468976  MISS:        539  HIT %:    99.9633  MISS %:  0.0366788   MPKI: 0.01078
STLB PREFETCH  REQUESTED:          0  ISSUED:          0  USEFUL:        539  USELESS:          0
STLB USEFUL LOAD PREFETCHES:        539 PREFETCH ISSUED TO LOWER LEVEL:          0  ACCURACY: inf
STLB TIMELY PREFETCHES:        539 LATE PREFETCHES: 0 DROPPED PREFETCHES: 0
STLB PREFETCHES SAME FILL-ORIGIN LEVEL: 0 DIFFERENT FILL-ORIGIN LEVEL: 0
STLB AVERAGE MISS LATENCY: 170.62 cycles
STLB RQ	ACCESS:    7596732	FORWARD:          0	MERGED:    6121334	TO_CACHE:    1475398

STLB Hit, L1D data hit: 0
STLB Hit, L2C data hit: 0
STLB Hit, LLC data hit: 0
STLB Hit, LLC data miss: 0
STLB STLB hints to L2: 0
L1D TOTAL     ACCESS:   22639361  HIT:   22386096  MISS:     253265  HIT %:    98.8813  MISS %:    1.11869   MPKI: 5.0653
L1D LOAD      ACCESS:    9470132  HIT:    9456873  MISS:      13259  HIT %:      99.86  MISS %:   0.140009   MPKI: 0.26518
L1D RFO       ACCESS:    5591621  HIT:    5507055  MISS:      84566  HIT %:    98.4876  MISS %:    1.51237   MPKI: 1.69132
L1D PREFETCH  ACCESS:    7577608  HIT:    7422168  MISS:     155440  HIT %:    97.9487  MISS %:    2.05131   MPKI: 3.1088
AGUS PREFETCH L1 MISS: 0
L1D PREFETCH  REQUESTED:   18748100  ISSUED:   15181715  USEFUL:     144150  USELESS:      11261
L1D USEFUL LOAD PREFETCHES:     144150 PREFETCH ISSUED TO LOWER LEVEL:     162392  ACCURACY: 88.7667
L1D TIMELY PREFETCHES:     144150 LATE PREFETCHES: 6952 DROPPED PREFETCHES: 0
L1D PREFETCHES SAME FILL-ORIGIN LEVEL: 162392 DIFFERENT FILL-ORIGIN LEVEL: 0
L1D AVERAGE MISS LATENCY: 276.799 cycles
L1D RQ	ACCESS:   11798511	FORWARD:          0	MERGED:    2251352	TO_CACHE:    9489536
L1D WQ	ACCESS:    6358286	FORWARD:      57623	MERGED:     379190	TO_CACHE:    5979096
L1D PQ	ACCESS:    7590860	FORWARD:          0	MERGED:          5	TO_CACHE:    7590855

L1D UNIQUE REGIONS ACCESSED: 0
L1D REGIONS CONFLICTS: 0
L1D Cross Page Prefetch Requests: 633607
L1D Same Page Prefetch Requests: 12995665
L1D ROI Sum of L1D PQ occupancy: 112718308
L1D PREFETCHES PUSHED FROM L2C: 0
L1I TOTAL     ACCESS:   10719881  HIT:   10719845  MISS:         36  HIT %:    99.9997  MISS %: 0.000335825   MPKI: 0.00072
L1I LOAD      ACCESS:   10719881  HIT:   10719845  MISS:         36  HIT %:    99.9997  MISS %: 0.000335825   MPKI: 0.00072
L1I PREFETCH  REQUESTED:          0  ISSUED:          0  USEFUL:          0  USELESS:          0
L1I USEFUL LOAD PREFETCHES:          0 PREFETCH ISSUED TO LOWER LEVEL:          0  ACCURACY: -nan
L1I TIMELY PREFETCHES:          0 LATE PREFETCHES: 0 DROPPED PREFETCHES: 0
L1I PREFETCHES SAME FILL-ORIGIN LEVEL: 0 DIFFERENT FILL-ORIGIN LEVEL: 0
L1I AVERAGE MISS LATENCY: 230.361 cycles
L1I RQ	ACCESS:   14204446	FORWARD:          0	MERGED:    3484555	TO_CACHE:   10719891

BTB TOTAL     ACCESS:    3368722  HIT:    2989495  MISS:     379227  HIT %:    88.7427  MISS %:    11.2573   MPKI: 7.58454
BTB BRANCH_DIRECT_JUMP	ACCESS:     379197  HIT:     379193  MISS:          4
BTB BRANCH_INDIRECT	ACCESS:          0  HIT:          0  MISS:          0
BTB BRANCH_CONDITIONAL	ACCESS:    1472752  HIT:    1472732  MISS:         20
BTB BRANCH_DIRECT_CALL	ACCESS:     758387  HIT:     758379  MISS:          8
BTB BRANCH_INDIRECT_CALL	ACCESS:          0  HIT:          0  MISS:          0
BTB BRANCH_RETURN	ACCESS:     758386  HIT:     379191  MISS:     379195
BTB BRANCH_OTHER ACCESS:          0  HIT:          0  MISS:          0

L2C TOTAL     ACCESS:     343639  HIT:      90001  MISS:     253638  HIT %:    26.1906  MISS %:    73.8094   MPKI: 5.07276
L2C LOAD      ACCESS:       6343  HIT:         64  MISS:       6279  HIT %:    1.00899  MISS %:     98.991   MPKI: 0.12558
L2C DATA LOAD MPKI: 0.12486
L2C INSTRUCTION LOAD MPKI: 0.00072
L2C RFO       ACCESS:      84566  HIT:          0  MISS:      84566  HIT %:          0  MISS %:        100   MPKI: 1.69132
L2C PREFETCH  ACCESS:     162392  HIT:        834  MISS:     161558  HIT %:   0.513572  MISS %:    99.4864   MPKI: 3.23116
AGUS PREFETCH L1 MISS: 0
L2C DATA PREFETCH MPKI: 3.23116
L2C INSTRUCTION PREFETCH MPKI: 0
L2C WRITEBACK ACCESS:      84458  HIT:      84453  MISS:          5  HIT %:    99.9941  MISS %:  0.0059201   MPKI: 0.0001
L2C LOAD TRANSLATION ACCESS:       5341  HIT:       4192  MISS:       1149  HIT %:    78.4872  MISS %:    21.5128   MPKI: 0.02298
L2C TRANSLATION FROM L1D PREFETCHER ACCESS:        539  HIT:        458  MISS:         81  HIT %:    84.9722  MISS %:    15.0278   MPKI: 0.00162
L2C PREFETCH  REQUESTED:          0  ISSUED:          0  USEFUL:         86  USELESS:     162105
L2C USEFUL LOAD PREFETCHES:         86 PREFETCH ISSUED TO LOWER LEVEL:     161558  ACCURACY: 0.0532317
L2C TIMELY PREFETCHES:         86 LATE PREFETCHES: 0 DROPPED PREFETCHES: 0
L2C PREFETCHES SAME FILL-ORIGIN LEVEL: 0 DIFFERENT FILL-ORIGIN LEVEL: 0
L2C AVERAGE MISS LATENCY: 261.981 cycles
L2C RQ	ACCESS:      96789	FORWARD:          0	MERGED:          0	TO_CACHE:      96789
L2C WQ	ACCESS:      84458	FORWARD:          0	MERGED:          0	TO_CACHE:      84458
L2C PQ	ACCESS:     162392	FORWARD:          0	MERGED:          0	TO_CACHE:     162392

L2C Instructions Evicting Data 36
L2C Translations Evicting Data 1229
L2C Data Evicting Data 251078
L2C Instructions Evicting Instructions 0
L2C Translations Evicting Instructions 0
L2C Data Evicting Instructions 36
L2C Instructions Evicting Translations 0
L2C Translations Evicting Translations 1
L2C Data Evicting Translations 1253
L2C Dense regions hint from L2: 0
PSCL5 TOTAL     ACCESS:       5870  HIT:       5870  MISS:          0  HIT %:        100  MISS %:          0   MPKI: 0
PSCL5 LOAD TRANSLATION ACCESS:       5331  HIT:       5331  MISS:          0  HIT %:        100  MISS %:          0   MPKI: 0
PSCL5 TRANSLATION FROM L1D PREFETCHER ACCESS:        539  HIT:        539  MISS:          0  HIT %:        100  MISS %:          0   MPKI: 0
PSCL5 PREFETCH  REQUESTED:          0  ISSUED:          0  USEFUL:          0  USELESS:          0
PSCL5 USEFUL LOAD PREFETCHES:          0 PREFETCH ISSUED TO LOWER LEVEL:          0  ACCURACY: -nan
PSCL5 TIMELY PREFETCHES:          0 LATE PREFETCHES: 0 DROPPED PREFETCHES: 0
PSCL5 PREFETCHES SAME FILL-ORIGIN LEVEL: 0 DIFFERENT FILL-ORIGIN LEVEL: 0

PSCL4 TOTAL     ACCESS:       5870  HIT:       5870  MISS:          0  HIT %:        100  MISS %:          0   MPKI: 0
PSCL4 LOAD TRANSLATION ACCESS:       5331  HIT:       5331  MISS:          0  HIT %:        100  MISS %:          0   MPKI: 0
PSCL4 TRANSLATION FROM L1D PREFETCHER ACCESS:        539  HIT:        539  MISS:          0  HIT %:        100  MISS %:          0   MPKI: 0
PSCL4 PREFETCH  REQUESTED:          0  ISSUED:          0  USEFUL:          0  USELESS:          0
PSCL4 USEFUL LOAD PREFETCHES:          0 PREFETCH ISSUED TO LOWER LEVEL:          0  ACCURACY: -nan
PSCL4 TIMELY PREFETCHES:          0 LATE PREFETCHES: 0 DROPPED PREFETCHES: 0
PSCL4 PREFETCHES SAME FILL-ORIGIN LEVEL: 0 DIFFERENT FILL-ORIGIN LEVEL: 0

PSCL3 TOTAL     ACCESS:       5869  HIT:       5868  MISS:          1  HIT %:     99.983  MISS %:  0.0170387   MPKI: 2e-05
PSCL3 LOAD TRANSLATION ACCESS:       5331  HIT:       5330  MISS:          1  HIT %:    99.9812  MISS %:  0.0187582   MPKI: 2e-05
PSCL3 TRANSLATION FROM L1D PREFETCHER ACCESS:        538  HIT:        538  MISS:          0  HIT %:        100  MISS %:          0   MPKI: 0
PSCL3 PREFETCH  REQUESTED:          0  ISSUED:          0  USEFUL:          0  USELESS:          0
PSCL3 USEFUL LOAD PREFETCHES:          0 PREFETCH ISSUED TO LOWER LEVEL:          0  ACCURACY: -nan
PSCL3 TIMELY PREFETCHES:          0 LATE PREFETCHES: 0 DROPPED PREFETCHES: 0
PSCL3 PREFETCHES SAME FILL-ORIGIN LEVEL: 0 DIFFERENT FILL-ORIGIN LEVEL: 0

PSCL2 TOTAL     ACCESS:       5870  HIT:       5845  MISS:         25  HIT %:    99.5741  MISS %:   0.425894   MPKI: 0.0005
PSCL2 LOAD TRANSLATION ACCESS:       5331  HIT:       5306  MISS:         25  HIT %:     99.531  MISS %:   0.468955   MPKI: 0.0005
PSCL2 TRANSLATION FROM L1D PREFETCHER ACCESS:        539  HIT:        539  MISS:          0  HIT %:        100  MISS %:          0   MPKI: 0
PSCL2 PREFETCH  REQUESTED:          0  ISSUED:          0  USEFUL:          0  USELESS:          0
PSCL2 USEFUL LOAD PREFETCHES:          0 PREFETCH ISSUED TO LOWER LEVEL:          0  ACCURACY: -nan
PSCL2 TIMELY PREFETCHES:          0 LATE PREFETCHES: 0 DROPPED PREFETCHES: 0
PSCL2 PREFETCHES SAME FILL-ORIGIN LEVEL: 0 DIFFERENT FILL-ORIGIN LEVEL: 0

LLC TOTAL     ACCESS:     337322  HIT:      83721  MISS:     253601  HIT %:    24.8193  MISS %:    75.1807   MPKI: 5.07202
LLC LOAD      ACCESS:       6279  HIT:          4  MISS:       6275  HIT %:  0.0637044  MISS %:    99.9363   MPKI: 0.1255
LLC RFO       ACCESS:      84566  HIT:          0  MISS:      84566  HIT %:          0  MISS %:        100   MPKI: 1.69132
LLC PREFETCH  ACCESS:     161558  HIT:         27  MISS:     161531  HIT %:  0.0167123  MISS %:    99.9833   MPKI: 3.23062
AGUS PREFETCH L1 MISS: 0
LLC WRITEBACK ACCESS:      83689  HIT:      83684  MISS:          5  HIT %:     99.994  MISS %:  0.0059745   MPKI: 0.0001
LLC LOAD TRANSLATION ACCESS:       1149  HIT:          6  MISS:       1143  HIT %:   0.522193  MISS %:    99.4778   MPKI: 0.02286
LLC TRANSLATION FROM L1D PREFETCHER ACCESS:         81  HIT:          0  MISS:         81  HIT %:          0  MISS %:        100   MPKI: 0.00162
LLC PREFETCH  REQUESTED:          0  ISSUED:          0  USEFUL:          2  USELESS:     163643
LLC USEFUL LOAD PREFETCHES:          2 PREFETCH ISSUED TO LOWER LEVEL:     161531  ACCURACY: 0.00123815
LLC TIMELY PREFETCHES:          2 LATE PREFETCHES: 0 DROPPED PREFETCHES: 0
LLC PREFETCHES SAME FILL-ORIGIN LEVEL: 0 DIFFERENT FILL-ORIGIN LEVEL: 0
LLC AVERAGE MISS LATENCY: 229.722 cycles
LLC RQ	ACCESS:      92075	FORWARD:          0	MERGED:          0	TO_CACHE:      92075
LLC WQ	ACCESS:      83689	FORWARD:          0	MERGED:          0	TO_CACHE:      83689
LLC PQ	ACCESS:     161558	FORWARD:          0	MERGED:          0	TO_CACHE:     161558

LLC Dense regions hint to LLC: 0

RAW hits: 1663179
Loads Generated: 13461690
Loads sent to L1D: 11798511
Stores Generated: 6358280
Stores sent to L1D: 6358286
Major fault: 0 Minor fault: 10630
Allocated PAGES: 10630

stream: 
stream:times selected: 2581924
stream:pref_reqs: 15305786
stream:pref_reqs_filtered_out: 5026746
stream:pref_filled: 312927
stream:pref_useful: 292635
stream:pref_late: 6744
stream:misses: 12
stream:misses_by_poll: 0

CS: 
CS:times selected: 486467
CS:pref_reqs: 1436739
CS:pref_reqs_filtered_out: 1354564
CS:pref_filled: 5019
CS:pref_useful: 4866
CS:pref_late: 91
CS:misses: 15122
CS:misses_by_poll: 3

CPLX: 
CPLX:times selected: 2093627
CPLX:pref_reqs: 5264993
CPLX:pref_reqs_filtered_out: 3557737
CPLX:pref_filled: 149
CPLX:pref_useful: 31
CPLX:pref_late: 5
CPLX:misses: 328
CPLX:misses_by_poll: 0

ISB: 
ISB:total access:17123926
ISB:times selected:7450625
ISB:canary counter:0
ISB:pref_reqs: 11606342
ISB:pref_reqs_filtered_out: 2841221
ISB:pref_filled: 20665
ISB:pref_useful: 20646
ISB:pref_late: 0
ISB:misses: 23042
ISB:misses_by_poll: 20
ISB:Stream end: 6306117
ISB:No Prediction: 9673301 56.49
ISB:No translation: 3511689285
ISB:Predictions: 5198770 30.3597

NL_L1: 
NL:times selected: 4
NL:pref_reqs: 4
NL:pref_reqs_filtered_out: 0
NL:pref_filled: 4
NL:pref_useful: 4
NL:pref_late: 0
NL:misses: 0
NL:misses_by_poll: 0

Coverage: 91.5767
total selections: 12612647
total_filled: 155440
total_useful: 144150
total_late: 6991
total_polluted: 23
total_misses_after_warmup: 32667
conflicts: 47128

test: 0
ISB Prefetcher final stats
Prefetcher final stats
Training Unit Size: 199
Addr table size: 316156 316159
Triggers: 17123926
Structural address exists: 7450625 43.51
No Prediction: 9673301 56.49
Prefetches issued: 5198770 30.3597
Stream end: 6306117
No translation: 3511689285
%Stream divergence: 1036 0.00605001
Stream divergence -- new stream: 0
A: 0
B: 0
C: 2581929
D: 2581929
E: 2581929
F: 0
G: 0

DRAM Statistics
 CHANNEL 0
 RQ ROW_BUFFER_HIT:      95603  ROW_BUFFER_MISS:     157993
 DBUS_CONGESTED:         36
 WQ ROW_BUFFER_HIT:       9413  ROW_BUFFER_MISS:      72387  FULL:          0

 AVG_CONGESTED_CYCLE: 5
 All warmup complete: 2
Channel 0 Bank busy for read cycles: 0
Channel 0 Bank busy for write cycles: 0
Channel 0
Rank 0
0banks busy for read cycles: 79622219
0banks busy for write cycles: 17579
1banks busy for read cycles: 6255173
1banks busy for write cycles: 2583425
2banks busy for read cycles: 643073
2banks busy for write cycles: 158199
3banks busy for read cycles: 405155
3banks busy for write cycles: 63946
4banks busy for read cycles: 561285
4banks busy for write cycles: 47465
5banks busy for read cycles: 650727
5banks busy for write cycles: 34022
6banks busy for read cycles: 647017
6banks busy for write cycles: 28032
7banks busy for read cycles: 694344
7banks busy for write cycles: 92770
8banks busy for read cycles: 833317
8banks busy for write cycles: 1402834

CPU 0 Branch Prediction Accuracy: 99.9746% MPKI: 0.0287 Average ROB Occupancy at Mispredict: 60.5484
Branch types
NOT_BRANCH: 44355226 88.7105%
BRANCH_DIRECT_JUMP: 379197 0.758394%
BRANCH_INDIRECT: 0 0%
BRANCH_CONDITIONAL: 3748585 7.49717%
BRANCH_DIRECT_CALL: 758387 1.51677%
BRANCH_INDIRECT_CALL: 0 0%
BRANCH_RETURN: 758386 1.51677%
BRANCH_OTHER: 0 0%

DRAM PAGES: 1048576
Allocated PAGES: 10630
