
*** ChampSim Multicore Out-of-Order Simulator ***

Warmup Instructions: 50000000
Simulation Instructions: 50000000
Number of CPUs: 1
LLC sets: 2048
LLC ways: 16
Off-chip DRAM Size: 4096 MB Channels: 1 Width: 64-bit Data Rate: 6400 MT/s
CPU 0 runs ./traces/SPEC-CPU2017/429.mcf-184B.champsimtrace.xz
.xz
CPU 0 Bimodal branch predictor
BTB has LRU replacement policy
ITLB has LRU replacement policy
DTLB has LRU replacement policy
STLB has LRU replacement policy
L1I has LRU replacement policy
L1D has LRU replacement policy
L2C has LRU replacement policy
LLC has LRU replacement policy
Heartbeat CPU 0 instructions: 10000003 cycles: 3622557 heartbeat IPC: 2.76048 cumulative IPC: 2.76048 (Simulation time: 0 hr 3 min 25 sec) 
Heartbeat CPU 0 instructions: 20000000 cycles: 7260872 heartbeat IPC: 2.74852 cumulative IPC: 2.75449 (Simulation time: 0 hr 6 min 49 sec) 
Heartbeat CPU 0 instructions: 30000001 cycles: 10833313 heartbeat IPC: 2.79921 cumulative IPC: 2.76924 (Simulation time: 0 hr 10 min 14 sec) 
Heartbeat CPU 0 instructions: 40000000 cycles: 14461432 heartbeat IPC: 2.75625 cumulative IPC: 2.76598 (Simulation time: 0 hr 13 min 39 sec) 
Heartbeat CPU 0 instructions: 50000000 cycles: 18094707 heartbeat IPC: 2.75234 cumulative IPC: 2.76324 (Simulation time: 0 hr 17 min 3 sec) 

Warmup complete CPU 0 instructions: 50000004 cycles: 18094708 (Simulation time: 0 hr 17 min 3 sec) 

Heartbeat CPU 0 instructions: 60000000 cycles: 133210033 heartbeat IPC: 0.0868694 cumulative IPC: 0.0868694 (Simulation time: 0 hr 18 min 28 sec) 
Heartbeat CPU 0 instructions: 70000000 cycles: 267126212 heartbeat IPC: 0.0746736 cumulative IPC: 0.0803111 (Simulation time: 0 hr 20 min 0 sec) 
Heartbeat CPU 0 instructions: 80000000 cycles: 391145642 heartbeat IPC: 0.0806325 cumulative IPC: 0.080418 (Simulation time: 0 hr 21 min 27 sec) 
Heartbeat CPU 0 instructions: 90000001 cycles: 508925300 heartbeat IPC: 0.0849043 cumulative IPC: 0.0814945 (Simulation time: 0 hr 22 min 53 sec) 
Heartbeat CPU 0 instructions: 100000000 cycles: 630170219 heartbeat IPC: 0.0824777 cumulative IPC: 0.0816893 (Simulation time: 0 hr 24 min 20 sec) 
Finished CPU 0 instructions: 50000000 cycles: 612075521 cumulative IPC: 0.0816893 (Simulation time: 0 hr 24 min 20 sec) 

ChampSim completed all CPUs

Region of Interest Statistics

CPU 0 cumulative IPC: 0.0816893 instructions: 50000000 cycles: 612075521
ITLB TOTAL     ACCESS:    9249691  HIT:    9249691  MISS:          0  HIT %:        100  MISS %:          0   MPKI: 0
ITLB LOAD TRANSLATION ACCESS:    9249691  HIT:    9249691  MISS:          0  HIT %:        100  MISS %:          0   MPKI: 0
ITLB PREFETCH  REQUESTED:          0  ISSUED:          0  USEFUL:          0  USELESS:          0
ITLB USEFUL LOAD PREFETCHES:          0 PREFETCH ISSUED TO LOWER LEVEL:          0  ACCURACY: -nan
ITLB TIMELY PREFETCHES:          0 LATE PREFETCHES: 0 DROPPED PREFETCHES: 0
ITLB PREFETCHES SAME FILL-ORIGIN LEVEL: 0 DIFFERENT FILL-ORIGIN LEVEL: 0
ITLB AVERAGE MISS LATENCY: -nan cycles
ITLB RQ	ACCESS:   10142238	FORWARD:          0	MERGED:     892548	TO_CACHE:    9249690

DTLB TOTAL     ACCESS:   11048638  HIT:    5365206  MISS:    5683432  HIT %:    48.5599  MISS %:    51.4401   MPKI: 113.669
DTLB LOAD TRANSLATION ACCESS:   11048638  HIT:    5365206  MISS:    5683432  HIT %:    48.5599  MISS %:    51.4401   MPKI: 113.669
DTLB PREFETCH  REQUESTED:          0  ISSUED:          0  USEFUL:          0  USELESS:          0
DTLB USEFUL LOAD PREFETCHES:          0 PREFETCH ISSUED TO LOWER LEVEL:          0  ACCURACY: -nan
DTLB TIMELY PREFETCHES:          0 LATE PREFETCHES: 0 DROPPED PREFETCHES: 0
DTLB PREFETCHES SAME FILL-ORIGIN LEVEL: 0 DIFFERENT FILL-ORIGIN LEVEL: 0
DTLB AVERAGE MISS LATENCY: 17.8794 cycles
DTLB RQ	ACCESS:   11926949	FORWARD:          0	MERGED:     870543	TO_CACHE:   11056406

STLB TOTAL     ACCESS:   12269371  HIT:   11901698  MISS:     367673  HIT %:    97.0033  MISS %:    2.99667   MPKI: 7.35346
STLB LOAD TRANSLATION ACCESS:    5683432  HIT:    5315759  MISS:     367673  HIT %:    93.5308  MISS %:    6.46921   MPKI: 7.35346
STLB TRANSLATION FROM L1D PREFETCHER ACCESS:    6585939  HIT:    6585939  MISS:          0  HIT %:        100  MISS %:          0   MPKI: 0
STLB PREFETCH  REQUESTED:          0  ISSUED:          0  USEFUL:          0  USELESS:          0
STLB USEFUL LOAD PREFETCHES:          0 PREFETCH ISSUED TO LOWER LEVEL:          0  ACCURACY: -nan
STLB TIMELY PREFETCHES:          0 LATE PREFETCHES: 0 DROPPED PREFETCHES: 0
STLB PREFETCHES SAME FILL-ORIGIN LEVEL: 0 DIFFERENT FILL-ORIGIN LEVEL: 0
STLB AVERAGE MISS LATENCY: 136.17 cycles
STLB RQ	ACCESS:   14355716	FORWARD:          0	MERGED:    2086347	TO_CACHE:   12269369

STLB Hit, L1D data hit: 0
STLB Hit, L2C data hit: 0
STLB Hit, LLC data hit: 0
STLB Hit, LLC data miss: 0
STLB STLB hints to L2: 0
L1D TOTAL     ACCESS:   20328513  HIT:    6021282  MISS:   14307231  HIT %:    29.6199  MISS %:    70.3801   MPKI: 286.145
L1D LOAD      ACCESS:   10697606  HIT:    4203093  MISS:    6494513  HIT %:      39.29  MISS %:      60.71   MPKI: 129.89
L1D RFO       ACCESS:    1199180  HIT:    1158374  MISS:      40806  HIT %:    96.5972  MISS %:    3.40283   MPKI: 0.81612
L1D PREFETCH  ACCESS:    8431727  HIT:     659815  MISS:    7771912  HIT %:    7.82538  MISS %:    92.1746   MPKI: 155.438
AGUS PREFETCH L1 MISS: 0
L1D PREFETCH  REQUESTED:   17386922  ISSUED:   17344687  USEFUL:     130347  USELESS:    7641548
L1D USEFUL LOAD PREFETCHES:     130347 PREFETCH ISSUED TO LOWER LEVEL:    7792105  ACCURACY: 1.67281
L1D TIMELY PREFETCHES:     130347 LATE PREFETCHES: 19976 DROPPED PREFETCHES: 0
L1D PREFETCHES SAME FILL-ORIGIN LEVEL: 7792105 DIFFERENT FILL-ORIGIN LEVEL: 0
L1D AVERAGE MISS LATENCY: 107.34 cycles
L1D RQ	ACCESS:   15929551	FORWARD:          0	MERGED:    5201894	TO_CACHE:   10721948
L1D WQ	ACCESS:    1282255	FORWARD:       5828	MERGED:      77254	TO_CACHE:    1205001
L1D PQ	ACCESS:    8672403	FORWARD:          0	MERGED:          0	TO_CACHE:    8672284

L1D UNIQUE REGIONS ACCESSED: 0
L1D REGIONS CONFLICTS: 0
L1D Cross Page Prefetch Requests: 0
L1D Same Page Prefetch Requests: 17924261
L1D ROI Sum of L1D PQ occupancy: 112624827
L1D PREFETCHES PUSHED FROM L2C: 0
L1I TOTAL     ACCESS:   10142239  HIT:   10142239  MISS:          0  HIT %:        100  MISS %:          0   MPKI: 0
L1I LOAD      ACCESS:   10142239  HIT:   10142239  MISS:          0  HIT %:        100  MISS %:          0   MPKI: 0
L1I PREFETCH  REQUESTED:          0  ISSUED:          0  USEFUL:          0  USELESS:          0
L1I USEFUL LOAD PREFETCHES:          0 PREFETCH ISSUED TO LOWER LEVEL:          0  ACCURACY: -nan
L1I TIMELY PREFETCHES:          0 LATE PREFETCHES: 0 DROPPED PREFETCHES: 0
L1I PREFETCHES SAME FILL-ORIGIN LEVEL: 0 DIFFERENT FILL-ORIGIN LEVEL: 0
L1I AVERAGE MISS LATENCY: -nan cycles
L1I RQ	ACCESS:   13989812	FORWARD:          0	MERGED:    3847574	TO_CACHE:   10142238

BTB TOTAL     ACCESS:   10746617  HIT:   10743468  MISS:       3149  HIT %:    99.9707  MISS %:  0.0293022   MPKI: 0.06298
BTB BRANCH_DIRECT_JUMP	ACCESS:     328173  HIT:     328155  MISS:         18
BTB BRANCH_INDIRECT	ACCESS:          0  HIT:          0  MISS:          0
BTB BRANCH_CONDITIONAL	ACCESS:   10354958  HIT:   10354903  MISS:         55
BTB BRANCH_DIRECT_CALL	ACCESS:      31743  HIT:      31737  MISS:          6
BTB BRANCH_INDIRECT_CALL	ACCESS:          0  HIT:          0  MISS:          0
BTB BRANCH_RETURN	ACCESS:      31743  HIT:      28673  MISS:       3070
BTB BRANCH_OTHER ACCESS:          0  HIT:          0  MISS:          0

L2C TOTAL     ACCESS:   15439642  HIT:    5705336  MISS:    9734306  HIT %:    36.9525  MISS %:    63.0475   MPKI: 194.686
L2C LOAD      ACCESS:    6474510  HIT:    2373111  MISS:    4101399  HIT %:    36.6531  MISS %:    63.3469   MPKI: 82.028
L2C DATA LOAD MPKI: 82.028
L2C INSTRUCTION LOAD MPKI: 0
L2C RFO       ACCESS:      40574  HIT:      15505  MISS:      25069  HIT %:    38.2141  MISS %:    61.7859   MPKI: 0.50138
L2C PREFETCH  ACCESS:    7792117  HIT:    2449710  MISS:    5342407  HIT %:    31.4383  MISS %:    68.5617   MPKI: 106.848
AGUS PREFETCH L1 MISS: 0
L2C DATA PREFETCH MPKI: 106.848
L2C INSTRUCTION PREFETCH MPKI: 0
L2C WRITEBACK ACCESS:     622707  HIT:     622691  MISS:         16  HIT %:    99.9974  MISS %: 0.00256943   MPKI: 0.00032
L2C LOAD TRANSLATION ACCESS:     509734  HIT:     244319  MISS:     265415  HIT %:    47.9307  MISS %:    52.0693   MPKI: 5.3083
L2C PREFETCH  REQUESTED:          0  ISSUED:          0  USEFUL:     969582  USELESS:    4372625
L2C USEFUL LOAD PREFETCHES:     969582 PREFETCH ISSUED TO LOWER LEVEL:    5342406  ACCURACY: 18.1488
L2C TIMELY PREFETCHES:     969582 LATE PREFETCHES: 0 DROPPED PREFETCHES: 0
L2C PREFETCHES SAME FILL-ORIGIN LEVEL: 0 DIFFERENT FILL-ORIGIN LEVEL: 0
L2C AVERAGE MISS LATENCY: 139.264 cycles
L2C RQ	ACCESS:    7024844	FORWARD:          0	MERGED:          0	TO_CACHE:    7024818
L2C WQ	ACCESS:     622707	FORWARD:         28	MERGED:          0	TO_CACHE:     622707
L2C PQ	ACCESS:    7792105	FORWARD:          0	MERGED:          0	TO_CACHE:    7792103

L2C Instructions Evicting Data 0
L2C Translations Evicting Data 250747
L2C Data Evicting Data 9218139
L2C Instructions Evicting Instructions 0
L2C Translations Evicting Instructions 0
L2C Data Evicting Instructions 0
L2C Instructions Evicting Translations 0
L2C Translations Evicting Translations 14668
L2C Data Evicting Translations 250736
L2C Dense regions hint from L2: 0
PSCL5 TOTAL     ACCESS:     367673  HIT:     367673  MISS:          0  HIT %:        100  MISS %:          0   MPKI: 0
PSCL5 LOAD TRANSLATION ACCESS:     367673  HIT:     367673  MISS:          0  HIT %:        100  MISS %:          0   MPKI: 0
PSCL5 PREFETCH  REQUESTED:          0  ISSUED:          0  USEFUL:          0  USELESS:          0
PSCL5 USEFUL LOAD PREFETCHES:          0 PREFETCH ISSUED TO LOWER LEVEL:          0  ACCURACY: -nan
PSCL5 TIMELY PREFETCHES:          0 LATE PREFETCHES: 0 DROPPED PREFETCHES: 0
PSCL5 PREFETCHES SAME FILL-ORIGIN LEVEL: 0 DIFFERENT FILL-ORIGIN LEVEL: 0

PSCL4 TOTAL     ACCESS:     367673  HIT:     367673  MISS:          0  HIT %:        100  MISS %:          0   MPKI: 0
PSCL4 LOAD TRANSLATION ACCESS:     367673  HIT:     367673  MISS:          0  HIT %:        100  MISS %:          0   MPKI: 0
PSCL4 PREFETCH  REQUESTED:          0  ISSUED:          0  USEFUL:          0  USELESS:          0
PSCL4 USEFUL LOAD PREFETCHES:          0 PREFETCH ISSUED TO LOWER LEVEL:          0  ACCURACY: -nan
PSCL4 TIMELY PREFETCHES:          0 LATE PREFETCHES: 0 DROPPED PREFETCHES: 0
PSCL4 PREFETCHES SAME FILL-ORIGIN LEVEL: 0 DIFFERENT FILL-ORIGIN LEVEL: 0

PSCL3 TOTAL     ACCESS:     367673  HIT:     367673  MISS:          0  HIT %:        100  MISS %:          0   MPKI: 0
PSCL3 LOAD TRANSLATION ACCESS:     367673  HIT:     367673  MISS:          0  HIT %:        100  MISS %:          0   MPKI: 0
PSCL3 PREFETCH  REQUESTED:          0  ISSUED:          0  USEFUL:          0  USELESS:          0
PSCL3 USEFUL LOAD PREFETCHES:          0 PREFETCH ISSUED TO LOWER LEVEL:          0  ACCURACY: -nan
PSCL3 TIMELY PREFETCHES:          0 LATE PREFETCHES: 0 DROPPED PREFETCHES: 0
PSCL3 PREFETCHES SAME FILL-ORIGIN LEVEL: 0 DIFFERENT FILL-ORIGIN LEVEL: 0

PSCL2 TOTAL     ACCESS:     367673  HIT:     225612  MISS:     142061  HIT %:    61.3621  MISS %:    38.6379   MPKI: 2.84122
PSCL2 LOAD TRANSLATION ACCESS:     367673  HIT:     225612  MISS:     142061  HIT %:    61.3621  MISS %:    38.6379   MPKI: 2.84122
PSCL2 PREFETCH  REQUESTED:          0  ISSUED:          0  USEFUL:          0  USELESS:          0
PSCL2 USEFUL LOAD PREFETCHES:          0 PREFETCH ISSUED TO LOWER LEVEL:          0  ACCURACY: -nan
PSCL2 TIMELY PREFETCHES:          0 LATE PREFETCHES: 0 DROPPED PREFETCHES: 0
PSCL2 PREFETCHES SAME FILL-ORIGIN LEVEL: 0 DIFFERENT FILL-ORIGIN LEVEL: 0

LLC TOTAL     ACCESS:   10214951  HIT:    4874833  MISS:    5340118  HIT %:    47.7225  MISS %:    52.2775   MPKI: 106.802
LLC LOAD      ACCESS:    4101398  HIT:    1538961  MISS:    2562437  HIT %:    37.5228  MISS %:    62.4772   MPKI: 51.2487
LLC RFO       ACCESS:      25069  HIT:       8364  MISS:      16705  HIT %:    33.3639  MISS %:    66.6361   MPKI: 0.3341
LLC PREFETCH  ACCESS:    5342407  HIT:    2740918  MISS:    2601489  HIT %:    51.3049  MISS %:    48.6951   MPKI: 52.0298
AGUS PREFETCH L1 MISS: 0
LLC WRITEBACK ACCESS:     480662  HIT:     479342  MISS:       1320  HIT %:    99.7254  MISS %:   0.274621   MPKI: 0.0264
LLC LOAD TRANSLATION ACCESS:     265415  HIT:     107248  MISS:     158167  HIT %:    40.4077  MISS %:    59.5923   MPKI: 3.16334
LLC PREFETCH  REQUESTED:          0  ISSUED:          0  USEFUL:     184850  USELESS:    2417262
LLC USEFUL LOAD PREFETCHES:     184850 PREFETCH ISSUED TO LOWER LEVEL:    2601489  ACCURACY: 7.10555
LLC TIMELY PREFETCHES:     184850 LATE PREFETCHES: 0 DROPPED PREFETCHES: 0
LLC PREFETCHES SAME FILL-ORIGIN LEVEL: 0 DIFFERENT FILL-ORIGIN LEVEL: 0
LLC AVERAGE MISS LATENCY: 198.929 cycles
LLC RQ	ACCESS:    4391883	FORWARD:          0	MERGED:          0	TO_CACHE:    4391882
LLC WQ	ACCESS:     480662	FORWARD:          1	MERGED:          0	TO_CACHE:     480662
LLC PQ	ACCESS:    5342406	FORWARD:          0	MERGED:          0	TO_CACHE:    5342406

LLC Dense regions hint to LLC: 0

RAW hits: 217139
Loads Generated: 16146693
Loads sent to L1D: 15929551
Stores Generated: 1282255
Stores sent to L1D: 1282255
Major fault: 0 Minor fault: 83728
Allocated PAGES: 83728

stream: 
stream:times selected: 20002080
stream:pref_filled: 12512440
stream:pref_useful: 166716
stream:pref_late: 25532
stream:misses: 2988718
stream:misses_by_poll: 0

CS: 
CS:times selected: 5016355
CS:pref_filled: 3114540
CS:pref_useful: 1523
CS:pref_late: 3
CS:misses: 102653
CS:misses_by_poll: 3406

CPLX: 
CPLX:times selected: 19790742
CPLX:pref_filled: 803876
CPLX:pref_useful: 7391
CPLX:pref_late: 120
CPLX:misses: 10522306
CPLX:misses_by_poll: 992

NL_L1: 
NL:times selected: 95105
NL:pref_filled: 76907
NL:pref_useful: 428
NL:pref_late: 88
NL:misses: 69490
NL:misses_by_poll: 0

total selections: 44904282
total_filled: 7771912
total_useful: 130347
total_late: 26261
total_polluted: 4398
total_misses_after_warmup: 6518856
conflicts: 77788

test: 15330763

DRAM Statistics
 CHANNEL 0
 RQ ROW_BUFFER_HIT:     133489  ROW_BUFFER_MISS:    5205219
 DBUS_CONGESTED:        152
 WQ ROW_BUFFER_HIT:     304713  ROW_BUFFER_MISS:      98242  FULL:          0

 AVG_CONGESTED_CYCLE: 4
 All warmup complete: 2
Channel 0 Bank busy for read cycles: 0
Channel 0 Bank busy for write cycles: 0
Channel 0
Rank 0
0banks busy for read cycles: 130939183
0banks busy for write cycles: 58032
1banks busy for read cycles: 167899655
1banks busy for write cycles: 16890967
2banks busy for read cycles: 168044939
2banks busy for write cycles: 7753265
3banks busy for read cycles: 53578517
3banks busy for write cycles: 6935908
4banks busy for read cycles: 22061421
4banks busy for write cycles: 6771137
5banks busy for read cycles: 5339017
5banks busy for write cycles: 6558566
6banks busy for read cycles: 1126988
6banks busy for write cycles: 6309454
7banks busy for read cycles: 137022
7banks busy for write cycles: 6120278
8banks busy for read cycles: 11367
8banks busy for write cycles: 5539806

CPU 0 Branch Prediction Accuracy: 88.5978% MPKI: 27.4129 Average ROB Occupancy at Mispredict: 21.3728
Branch types
NOT_BRANCH: 37978919 75.9578%
BRANCH_DIRECT_JUMP: 328173 0.656346%
BRANCH_INDIRECT: 0 0%
BRANCH_CONDITIONAL: 11629170 23.2583%
BRANCH_DIRECT_CALL: 31743 0.063486%
BRANCH_INDIRECT_CALL: 0 0%
BRANCH_RETURN: 31743 0.063486%
BRANCH_OTHER: 0 0%

DRAM PAGES: 1048576
Allocated PAGES: 83728
