
*** ChampSim Multicore Out-of-Order Simulator ***

Warmup Instructions: 50000000
Simulation Instructions: 50000000
Number of CPUs: 1
LLC sets: 2048
LLC ways: 16
Off-chip DRAM Size: 4096 MB Channels: 1 Width: 64-bit Data Rate: 6400 MT/s
CPU 0 runs traces/SPEC-CPU2017/429.mcf-184B.champsimtrace.xz
.xz
CPU 0 Bimodal branch predictor
BTB has LRU replacement policy
ITLB has LRU replacement policy
DTLB has LRU replacement policy
STLB has LRU replacement policy
L1I has LRU replacement policy
L1D has LRU replacement policy
L2C has LRU replacement policy
LLC has LRU replacement policy
Heartbeat CPU 0 instructions: 10000003 cycles: 3925499 heartbeat IPC: 2.54745 cumulative IPC: 2.54745 (Simulation time: 0 hr 9 min 51 sec) 
Heartbeat CPU 0 instructions: 20000000 cycles: 7813417 heartbeat IPC: 2.57207 cumulative IPC: 2.5597 (Simulation time: 0 hr 20 min 29 sec) 
Heartbeat CPU 0 instructions: 30000001 cycles: 11683420 heartbeat IPC: 2.58398 cumulative IPC: 2.56774 (Simulation time: 0 hr 31 min 26 sec) 
Heartbeat CPU 0 instructions: 40000000 cycles: 15556814 heartbeat IPC: 2.58171 cumulative IPC: 2.57122 (Simulation time: 0 hr 42 min 33 sec) 
Heartbeat CPU 0 instructions: 50000000 cycles: 19440305 heartbeat IPC: 2.575 cumulative IPC: 2.57198 (Simulation time: 0 hr 53 min 43 sec) 

Warmup complete CPU 0 instructions: 50000004 cycles: 19440306 (Simulation time: 0 hr 53 min 43 sec) 

Heartbeat CPU 0 instructions: 60000000 cycles: 131638379 heartbeat IPC: 0.0891281 cumulative IPC: 0.0891281 (Simulation time: 1 hr 2 min 5 sec) 
Heartbeat CPU 0 instructions: 70000000 cycles: 244592455 heartbeat IPC: 0.0885316 cumulative IPC: 0.0888288 (Simulation time: 1 hr 10 min 37 sec) 
Heartbeat CPU 0 instructions: 80000000 cycles: 357078921 heartbeat IPC: 0.0888996 cumulative IPC: 0.0888524 (Simulation time: 1 hr 19 min 28 sec) 
Heartbeat CPU 0 instructions: 90000001 cycles: 454778640 heartbeat IPC: 0.102354 cumulative IPC: 0.0918825 (Simulation time: 1 hr 28 min 47 sec) 
Heartbeat CPU 0 instructions: 100000000 cycles: 555989377 heartbeat IPC: 0.0988037 cumulative IPC: 0.0931881 (Simulation time: 1 hr 37 min 51 sec) 
Finished CPU 0 instructions: 50000000 cycles: 536549081 cumulative IPC: 0.0931881 (Simulation time: 1 hr 37 min 51 sec) 

ChampSim completed all CPUs

Region of Interest Statistics

CPU 0 cumulative IPC: 0.0931881 instructions: 50000000 cycles: 536549081
ITLB TOTAL     ACCESS:    9251867  HIT:    9251867  MISS:          0  HIT %:        100  MISS %:          0   MPKI: 0
ITLB LOAD TRANSLATION ACCESS:    9251867  HIT:    9251867  MISS:          0  HIT %:        100  MISS %:          0   MPKI: 0
ITLB PREFETCH  REQUESTED:          0  ISSUED:          0  USEFUL:          0  USELESS:          0
ITLB USEFUL LOAD PREFETCHES:          0 PREFETCH ISSUED TO LOWER LEVEL:          0  ACCURACY: -nan
ITLB TIMELY PREFETCHES:          0 LATE PREFETCHES: 0 DROPPED PREFETCHES: 0
ITLB PREFETCHES SAME FILL-ORIGIN LEVEL: 0 DIFFERENT FILL-ORIGIN LEVEL: 0
ITLB AVERAGE MISS LATENCY: -nan cycles
ITLB RQ	ACCESS:   10143367	FORWARD:          0	MERGED:     891501	TO_CACHE:    9251866

DTLB TOTAL     ACCESS:   11096830  HIT:    5413645  MISS:    5683185  HIT %:    48.7855  MISS %:    51.2145   MPKI: 113.664
DTLB LOAD TRANSLATION ACCESS:   11096830  HIT:    5413645  MISS:    5683185  HIT %:    48.7855  MISS %:    51.2145   MPKI: 113.664
DTLB PREFETCH  REQUESTED:          0  ISSUED:          0  USEFUL:          0  USELESS:          0
DTLB USEFUL LOAD PREFETCHES:          0 PREFETCH ISSUED TO LOWER LEVEL:          0  ACCURACY: -nan
DTLB TIMELY PREFETCHES:          0 LATE PREFETCHES: 0 DROPPED PREFETCHES: 0
DTLB PREFETCHES SAME FILL-ORIGIN LEVEL: 0 DIFFERENT FILL-ORIGIN LEVEL: 0
DTLB AVERAGE MISS LATENCY: 13.4218 cycles
DTLB RQ	ACCESS:   11986163	FORWARD:          0	MERGED:     877898	TO_CACHE:   11108265

STLB TOTAL     ACCESS:   18966756  HIT:   18341478  MISS:     625278  HIT %:    96.7033  MISS %:    3.29671   MPKI: 12.5056
STLB LOAD TRANSLATION ACCESS:    5683185  HIT:    5516893  MISS:     166292  HIT %:     97.074  MISS %:    2.92604   MPKI: 3.32584
STLB TRANSLATION FROM L1D PREFETCHER ACCESS:   13283571  HIT:   12824585  MISS:     458986  HIT %:    96.5447  MISS %:    3.45529   MPKI: 9.17972
STLB PREFETCH  REQUESTED:          0  ISSUED:          0  USEFUL:     370414  USELESS:      88557
STLB USEFUL LOAD PREFETCHES:     370414 PREFETCH ISSUED TO LOWER LEVEL:          0  ACCURACY: inf
STLB TIMELY PREFETCHES:     370414 LATE PREFETCHES: 1157 DROPPED PREFETCHES: 0
STLB PREFETCHES SAME FILL-ORIGIN LEVEL: 0 DIFFERENT FILL-ORIGIN LEVEL: 0
STLB AVERAGE MISS LATENCY: 185.079 cycles
STLB RQ	ACCESS:   21384481	FORWARD:          0	MERGED:    2415116	TO_CACHE:   18969365

STLB Hit, L1D data hit: 0
STLB Hit, L2C data hit: 0
STLB Hit, LLC data hit: 0
STLB Hit, LLC data miss: 0
STLB STLB hints to L2: 0
L1D TOTAL     ACCESS:   27051405  HIT:    9190606  MISS:   17860799  HIT %:    33.9746  MISS %:    66.0254   MPKI: 357.216
L1D LOAD      ACCESS:   10763568  HIT:    5033056  MISS:    5730512  HIT %:    46.7601  MISS %:    53.2399   MPKI: 114.61
L1D RFO       ACCESS:    1198590  HIT:    1146773  MISS:      51817  HIT %:    95.6768  MISS %:    4.32316   MPKI: 1.03634
L1D PREFETCH  ACCESS:   15089247  HIT:    3010777  MISS:   12078470  HIT %:    19.9531  MISS %:    80.0469   MPKI: 241.569
AGUS PREFETCH L1 MISS: 0
L1D PREFETCH  REQUESTED:   32869291  ISSUED:   31403373  USEFUL:     932121  USELESS:   11146288
L1D USEFUL LOAD PREFETCHES:     932121 PREFETCH ISSUED TO LOWER LEVEL:   12123050  ACCURACY: 7.68883
L1D TIMELY PREFETCHES:     932121 LATE PREFETCHES: 39640 DROPPED PREFETCHES: 0
L1D PREFETCHES SAME FILL-ORIGIN LEVEL: 12123050 DIFFERENT FILL-ORIGIN LEVEL: 0
L1D AVERAGE MISS LATENCY: 105.45 cycles
L1D RQ	ACCESS:   16014627	FORWARD:          0	MERGED:    5227506	TO_CACHE:   10781194
L1D WQ	ACCESS:    1282255	FORWARD:       6245	MERGED:      77286	TO_CACHE:    1204969
L1D PQ	ACCESS:   15702074	FORWARD:          0	MERGED:        457	TO_CACHE:   15701299

L1D UNIQUE REGIONS ACCESSED: 0
L1D REGIONS CONFLICTS: 0
L1D Cross Page Prefetch Requests: 11385076
L1D Same Page Prefetch Requests: 16837628
L1D ROI Sum of L1D PQ occupancy: 448662276
L1D PREFETCHES PUSHED FROM L2C: 0
L1I TOTAL     ACCESS:   10143368  HIT:   10143368  MISS:          0  HIT %:        100  MISS %:          0   MPKI: 0
L1I LOAD      ACCESS:   10143368  HIT:   10143368  MISS:          0  HIT %:        100  MISS %:          0   MPKI: 0
L1I PREFETCH  REQUESTED:          0  ISSUED:          0  USEFUL:          0  USELESS:          0
L1I USEFUL LOAD PREFETCHES:          0 PREFETCH ISSUED TO LOWER LEVEL:          0  ACCURACY: -nan
L1I TIMELY PREFETCHES:          0 LATE PREFETCHES: 0 DROPPED PREFETCHES: 0
L1I PREFETCHES SAME FILL-ORIGIN LEVEL: 0 DIFFERENT FILL-ORIGIN LEVEL: 0
L1I AVERAGE MISS LATENCY: -nan cycles
L1I RQ	ACCESS:   13991387	FORWARD:          0	MERGED:    3848020	TO_CACHE:   10143367

BTB TOTAL     ACCESS:   10746617  HIT:   10743468  MISS:       3149  HIT %:    99.9707  MISS %:  0.0293022   MPKI: 0.06298
BTB BRANCH_DIRECT_JUMP	ACCESS:     328173  HIT:     328155  MISS:         18
BTB BRANCH_INDIRECT	ACCESS:          0  HIT:          0  MISS:          0
BTB BRANCH_CONDITIONAL	ACCESS:   10354958  HIT:   10354903  MISS:         55
BTB BRANCH_DIRECT_CALL	ACCESS:      31743  HIT:      31737  MISS:          6
BTB BRANCH_INDIRECT_CALL	ACCESS:          0  HIT:          0  MISS:          0
BTB BRANCH_RETURN	ACCESS:      31743  HIT:      28673  MISS:       3070
BTB BRANCH_OTHER ACCESS:          0  HIT:          0  MISS:          0

L2C TOTAL     ACCESS:   19300636  HIT:    7118931  MISS:   12181705  HIT %:    36.8844  MISS %:    63.1156   MPKI: 243.634
L2C LOAD      ACCESS:    5690852  HIT:    2165434  MISS:    3525418  HIT %:    38.0511  MISS %:    61.9489   MPKI: 70.5084
L2C DATA LOAD MPKI: 70.5084
L2C INSTRUCTION LOAD MPKI: 0
L2C RFO       ACCESS:      46869  HIT:      17110  MISS:      29759  HIT %:     36.506  MISS %:     63.494   MPKI: 0.59518
L2C PREFETCH  ACCESS:   12123050  HIT:    3850925  MISS:    8272125  HIT %:    31.7653  MISS %:    68.2347   MPKI: 165.442
AGUS PREFETCH L1 MISS: 0
L2C DATA PREFETCH MPKI: 165.442
L2C INSTRUCTION PREFETCH MPKI: 0
L2C WRITEBACK ACCESS:     624284  HIT:     624271  MISS:         13  HIT %:    99.9979  MISS %: 0.00208239   MPKI: 0.00026
L2C LOAD TRANSLATION ACCESS:     217378  HIT:      93432  MISS:     123946  HIT %:    42.9814  MISS %:    57.0186   MPKI: 2.47892
L2C TRANSLATION FROM L1D PREFETCHER ACCESS:     598203  HIT:     367759  MISS:     230444  HIT %:    61.4773  MISS %:    38.5227   MPKI: 4.60888
L2C PREFETCH  REQUESTED:          0  ISSUED:          0  USEFUL:    1179185  USELESS:    7322698
L2C USEFUL LOAD PREFETCHES:    1179185 PREFETCH ISSUED TO LOWER LEVEL:    8272125  ACCURACY: 14.2549
L2C TIMELY PREFETCHES:    1179185 LATE PREFETCHES: 0 DROPPED PREFETCHES: 0
L2C PREFETCHES SAME FILL-ORIGIN LEVEL: 0 DIFFERENT FILL-ORIGIN LEVEL: 0
L2C AVERAGE MISS LATENCY: 136.394 cycles
L2C RQ	ACCESS:    6553321	FORWARD:          0	MERGED:          0	TO_CACHE:    6553302
L2C WQ	ACCESS:     624284	FORWARD:         26	MERGED:          0	TO_CACHE:     624284
L2C PQ	ACCESS:   12123050	FORWARD:          0	MERGED:          0	TO_CACHE:   12123043

L2C Instructions Evicting Data 0
L2C Translations Evicting Data 335317
L2C Data Evicting Data 11492009
L2C Instructions Evicting Instructions 0
L2C Translations Evicting Instructions 0
L2C Data Evicting Instructions 0
L2C Instructions Evicting Translations 0
L2C Translations Evicting Translations 19073
L2C Data Evicting Translations 335293
L2C Dense regions hint from L2: 0
PSCL5 TOTAL     ACCESS:     625278  HIT:     625278  MISS:          0  HIT %:        100  MISS %:          0   MPKI: 0
PSCL5 LOAD TRANSLATION ACCESS:     165135  HIT:     165135  MISS:          0  HIT %:        100  MISS %:          0   MPKI: 0
PSCL5 TRANSLATION FROM L1D PREFETCHER ACCESS:     460143  HIT:     460143  MISS:          0  HIT %:        100  MISS %:          0   MPKI: 0
PSCL5 PREFETCH  REQUESTED:          0  ISSUED:          0  USEFUL:          0  USELESS:          0
PSCL5 USEFUL LOAD PREFETCHES:          0 PREFETCH ISSUED TO LOWER LEVEL:          0  ACCURACY: -nan
PSCL5 TIMELY PREFETCHES:          0 LATE PREFETCHES: 0 DROPPED PREFETCHES: 0
PSCL5 PREFETCHES SAME FILL-ORIGIN LEVEL: 0 DIFFERENT FILL-ORIGIN LEVEL: 0

PSCL4 TOTAL     ACCESS:     625278  HIT:     625278  MISS:          0  HIT %:        100  MISS %:          0   MPKI: 0
PSCL4 LOAD TRANSLATION ACCESS:     165135  HIT:     165135  MISS:          0  HIT %:        100  MISS %:          0   MPKI: 0
PSCL4 TRANSLATION FROM L1D PREFETCHER ACCESS:     460143  HIT:     460143  MISS:          0  HIT %:        100  MISS %:          0   MPKI: 0
PSCL4 PREFETCH  REQUESTED:          0  ISSUED:          0  USEFUL:          0  USELESS:          0
PSCL4 USEFUL LOAD PREFETCHES:          0 PREFETCH ISSUED TO LOWER LEVEL:          0  ACCURACY: -nan
PSCL4 TIMELY PREFETCHES:          0 LATE PREFETCHES: 0 DROPPED PREFETCHES: 0
PSCL4 PREFETCHES SAME FILL-ORIGIN LEVEL: 0 DIFFERENT FILL-ORIGIN LEVEL: 0

PSCL3 TOTAL     ACCESS:     625278  HIT:     625278  MISS:          0  HIT %:        100  MISS %:          0   MPKI: 0
PSCL3 LOAD TRANSLATION ACCESS:     165135  HIT:     165135  MISS:          0  HIT %:        100  MISS %:          0   MPKI: 0
PSCL3 TRANSLATION FROM L1D PREFETCHER ACCESS:     460143  HIT:     460143  MISS:          0  HIT %:        100  MISS %:          0   MPKI: 0
PSCL3 PREFETCH  REQUESTED:          0  ISSUED:          0  USEFUL:          0  USELESS:          0
PSCL3 USEFUL LOAD PREFETCHES:          0 PREFETCH ISSUED TO LOWER LEVEL:          0  ACCURACY: -nan
PSCL3 TIMELY PREFETCHES:          0 LATE PREFETCHES: 0 DROPPED PREFETCHES: 0
PSCL3 PREFETCHES SAME FILL-ORIGIN LEVEL: 0 DIFFERENT FILL-ORIGIN LEVEL: 0

PSCL2 TOTAL     ACCESS:     625278  HIT:     434975  MISS:     190303  HIT %:    69.5651  MISS %:    30.4349   MPKI: 3.80606
PSCL2 LOAD TRANSLATION ACCESS:     303195  HIT:     112892  MISS:     190303  HIT %:    37.2341  MISS %:    62.7659   MPKI: 3.80606
PSCL2 TRANSLATION FROM L1D PREFETCHER ACCESS:     322083  HIT:     322083  MISS:          0  HIT %:        100  MISS %:          0   MPKI: 0
PSCL2 PREFETCH  REQUESTED:          0  ISSUED:          0  USEFUL:          0  USELESS:          0
PSCL2 USEFUL LOAD PREFETCHES:          0 PREFETCH ISSUED TO LOWER LEVEL:          0  ACCURACY: -nan
PSCL2 TIMELY PREFETCHES:          0 LATE PREFETCHES: 0 DROPPED PREFETCHES: 0
PSCL2 PREFETCHES SAME FILL-ORIGIN LEVEL: 0 DIFFERENT FILL-ORIGIN LEVEL: 0

LLC TOTAL     ACCESS:   12675793  HIT:    6711638  MISS:    5964155  HIT %:    52.9485  MISS %:    47.0515   MPKI: 119.283
LLC LOAD      ACCESS:    3525417  HIT:    1511722  MISS:    2013695  HIT %:    42.8807  MISS %:    57.1193   MPKI: 40.2739
LLC RFO       ACCESS:      29759  HIT:      10663  MISS:      19096  HIT %:    35.8312  MISS %:    64.1688   MPKI: 0.38192
LLC PREFETCH  ACCESS:    8272124  HIT:    4525069  MISS:    3747055  HIT %:    54.7026  MISS %:    45.2974   MPKI: 74.9411
AGUS PREFETCH L1 MISS: 0
LLC WRITEBACK ACCESS:     494103  HIT:     492986  MISS:       1117  HIT %:    99.7739  MISS %:   0.226066   MPKI: 0.02234
LLC LOAD TRANSLATION ACCESS:     123946  HIT:      78141  MISS:      45805  HIT %:    63.0444  MISS %:    36.9556   MPKI: 0.9161
LLC TRANSLATION FROM L1D PREFETCHER ACCESS:     230444  HIT:      93057  MISS:     137387  HIT %:    40.3816  MISS %:    59.6184   MPKI: 2.74774
LLC PREFETCH  REQUESTED:          0  ISSUED:          0  USEFUL:     327480  USELESS:    3555334
LLC USEFUL LOAD PREFETCHES:     327480 PREFETCH ISSUED TO LOWER LEVEL:    3747055  ACCURACY: 8.73966
LLC TIMELY PREFETCHES:     327480 LATE PREFETCHES: 0 DROPPED PREFETCHES: 0
LLC PREFETCHES SAME FILL-ORIGIN LEVEL: 0 DIFFERENT FILL-ORIGIN LEVEL: 0
LLC AVERAGE MISS LATENCY: 217.044 cycles
LLC RQ	ACCESS:    3909567	FORWARD:          0	MERGED:          0	TO_CACHE:    3909566
LLC WQ	ACCESS:     494103	FORWARD:          3	MERGED:          0	TO_CACHE:     494103
LLC PQ	ACCESS:    8272125	FORWARD:          0	MERGED:          0	TO_CACHE:    8272123

LLC Dense regions hint to LLC: 0

RAW hits: 132065
Loads Generated: 16146695
Loads sent to L1D: 16014627
Stores Generated: 1282255
Stores sent to L1D: 1282255
Major fault: 0 Minor fault: 83728
Allocated PAGES: 83728

stream: 
stream:times selected: 20053598
stream:pref_reqs: 19384911
stream:pref_reqs_filtered_out: 5214638
stream:pref_filled: 11604028
stream:pref_useful: 107831
stream:pref_late: 13054
stream:misses: 659890
stream:misses_by_poll: 0

CS: 
CS:times selected: 4981913
CS:pref_reqs: 4983154
CS:pref_reqs_filtered_out: 1116054
CS:pref_filled: 2729583
CS:pref_useful: 1585
CS:pref_late: 25
CS:misses: 103590
CS:misses_by_poll: 3531

CPLX: 
CPLX:times selected: 19839735
CPLX:pref_reqs: 5325105
CPLX:pref_reqs_filtered_out: 4382608
CPLX:pref_filled: 728356
CPLX:pref_useful: 6012
CPLX:pref_late: 116
CPLX:misses: 3937602
CPLX:misses_by_poll: 1070

ISB: 
ISB:total access:21110247
ISB:times selected:15838256
ISB:canary counter:0
ISB:pref_reqs: 26251216
ISB:pref_reqs_filtered_out: 9259023
ISB:pref_filled: 7123264
ISB:pref_useful: 1181958
ISB:pref_late: 64059
ISB:misses: 7864619
ISB:misses_by_poll: 42102
ISB:Stream end: 15057654
ISB:No Prediction: 5271991 24.9736
ISB:No translation: 766570283
ISB:Predictions: 11689633 55.3742

NL_L1: 
NL:times selected: 65102
NL:pref_reqs: 65102
NL:pref_reqs_filtered_out: 5197
NL:pref_filled: 45567
NL:pref_useful: 179
NL:pref_late: 13
NL:misses: 43545
NL:misses_by_poll: 0

Coverage: 13.9903
total selections: 60778604
total_filled: 12078470
total_useful: 932121
total_late: 81643
total_polluted: 46703
total_misses_after_warmup: 5748141
conflicts: 77895

test: 0
ISB Prefetcher final stats
Prefetcher final stats
Training Unit Size: 97
Addr table size: 3978663 3978691
Triggers: 21110247
Structural address exists: 15838256 75.0264
No Prediction: 5271991 24.9736
Prefetches issued: 11689633 55.3742
Stream end: 15057654
No translation: 766570283
%Stream divergence: 2139794 10.1363
Stream divergence -- new stream: 0
A: 21428187
B: 21428187
C: 20053602
D: 20053602
E: 20053602
F: 21428187
G: 189500

DRAM Statistics
 CHANNEL 0
 RQ ROW_BUFFER_HIT:     141874  ROW_BUFFER_MISS:    5820783
 DBUS_CONGESTED:        175
 WQ ROW_BUFFER_HIT:     172911  ROW_BUFFER_MISS:     232680  FULL:          0

 AVG_CONGESTED_CYCLE: 4
 All warmup complete: 2
Channel 0 Bank busy for read cycles: 0
Channel 0 Bank busy for write cycles: 0
Channel 0
Rank 0
0banks busy for read cycles: 103760680
0banks busy for write cycles: 46956
1banks busy for read cycles: 141623614
1banks busy for write cycles: 12563228
2banks busy for read cycles: 129114410
2banks busy for write cycles: 2881820
3banks busy for read cycles: 69513216
3banks busy for write cycles: 1319225
4banks busy for read cycles: 36445983
4banks busy for write cycles: 923618
5banks busy for read cycles: 15857157
5banks busy for write cycles: 734090
6banks busy for read cycles: 5848599
6banks busy for write cycles: 724749
7banks busy for read cycles: 1528250
7banks busy for write cycles: 2249603
8banks busy for read cycles: 215086
8banks busy for write cycles: 11198798

CPU 0 Branch Prediction Accuracy: 88.5978% MPKI: 27.4129 Average ROB Occupancy at Mispredict: 19.2176
Branch types
NOT_BRANCH: 37978919 75.9578%
BRANCH_DIRECT_JUMP: 328173 0.656346%
BRANCH_INDIRECT: 0 0%
BRANCH_CONDITIONAL: 11629170 23.2583%
BRANCH_DIRECT_CALL: 31743 0.063486%
BRANCH_INDIRECT_CALL: 0 0%
BRANCH_RETURN: 31743 0.063486%
BRANCH_OTHER: 0 0%

DRAM PAGES: 1048576
Allocated PAGES: 83728
