
*** ChampSim Multicore Out-of-Order Simulator ***

Warmup Instructions: 50000000
Simulation Instructions: 50000000
Number of CPUs: 1
LLC sets: 2048
LLC ways: 16
Off-chip DRAM Size: 4096 MB Channels: 1 Width: 64-bit Data Rate: 6400 MT/s
CPU 0 runs traces/SPEC-CPU2017/436.cactusADM-1804B.champsimtrace.xz
.xz
CPU 0 Bimodal branch predictor
BTB has LRU replacement policy
ITLB has LRU replacement policy
DTLB has LRU replacement policy
STLB has LRU replacement policy
L1I has LRU replacement policy
L1D has LRU replacement policy
L2C has LRU replacement policy
LLC has LRU replacement policy
Heartbeat CPU 0 instructions: 10000003 cycles: 4117152 heartbeat IPC: 2.42886 cumulative IPC: 2.42886 (Simulation time: 0 hr 0 min 46 sec) 
Heartbeat CPU 0 instructions: 20000000 cycles: 8323661 heartbeat IPC: 2.37727 cumulative IPC: 2.40279 (Simulation time: 0 hr 1 min 32 sec) 
Heartbeat CPU 0 instructions: 30000003 cycles: 12440459 heartbeat IPC: 2.42907 cumulative IPC: 2.41149 (Simulation time: 0 hr 2 min 18 sec) 
Heartbeat CPU 0 instructions: 40000000 cycles: 16556693 heartbeat IPC: 2.4294 cumulative IPC: 2.41594 (Simulation time: 0 hr 3 min 4 sec) 
Heartbeat CPU 0 instructions: 50000002 cycles: 20763676 heartbeat IPC: 2.377 cumulative IPC: 2.40805 (Simulation time: 0 hr 3 min 50 sec) 

Warmup complete CPU 0 instructions: 50000002 cycles: 20763676 (Simulation time: 0 hr 3 min 50 sec) 

Heartbeat CPU 0 instructions: 60000000 cycles: 35504210 heartbeat IPC: 0.678401 cumulative IPC: 0.678401 (Simulation time: 0 hr 4 min 52 sec) 
Heartbeat CPU 0 instructions: 70000003 cycles: 52658669 heartbeat IPC: 0.582939 cumulative IPC: 0.627058 (Simulation time: 0 hr 5 min 58 sec) 
Heartbeat CPU 0 instructions: 80000000 cycles: 67401521 heartbeat IPC: 0.678295 cumulative IPC: 0.643254 (Simulation time: 0 hr 7 min 1 sec) 
Heartbeat CPU 0 instructions: 90000000 cycles: 84494989 heartbeat IPC: 0.585019 cumulative IPC: 0.627635 (Simulation time: 0 hr 8 min 7 sec) 
Heartbeat CPU 0 instructions: 100000000 cycles: 99217776 heartbeat IPC: 0.679219 cumulative IPC: 0.637315 (Simulation time: 0 hr 9 min 10 sec) 
Finished CPU 0 instructions: 50000000 cycles: 78454117 cumulative IPC: 0.637315 (Simulation time: 0 hr 9 min 10 sec) 

ChampSim completed all CPUs

Region of Interest Statistics

CPU 0 cumulative IPC: 0.637315 instructions: 50000000 cycles: 78454117
ITLB TOTAL     ACCESS:    8268512  HIT:    8268512  MISS:          0  HIT %:        100  MISS %:          0   MPKI: 0
ITLB LOAD TRANSLATION ACCESS:    8268512  HIT:    8268512  MISS:          0  HIT %:        100  MISS %:          0   MPKI: 0
ITLB PREFETCH  REQUESTED:          0  ISSUED:          0  USEFUL:          0  USELESS:          0
ITLB USEFUL LOAD PREFETCHES:          0 PREFETCH ISSUED TO LOWER LEVEL:          0  ACCURACY: -nan
ITLB TIMELY PREFETCHES:          0 LATE PREFETCHES: 0 DROPPED PREFETCHES: 0
ITLB PREFETCHES SAME FILL-ORIGIN LEVEL: 0 DIFFERENT FILL-ORIGIN LEVEL: 0
ITLB AVERAGE MISS LATENCY: -nan cycles
ITLB RQ	ACCESS:    9879096	FORWARD:          0	MERGED:    1610585	TO_CACHE:    8268511

DTLB TOTAL     ACCESS:   14687635  HIT:   13399289  MISS:    1288346  HIT %:    91.2284  MISS %:    8.77164   MPKI: 25.7669
DTLB LOAD TRANSLATION ACCESS:   14687635  HIT:   13399289  MISS:    1288346  HIT %:    91.2284  MISS %:    8.77164   MPKI: 25.7669
DTLB PREFETCH  REQUESTED:          0  ISSUED:          0  USEFUL:          0  USELESS:          0
DTLB USEFUL LOAD PREFETCHES:          0 PREFETCH ISSUED TO LOWER LEVEL:          0  ACCURACY: -nan
DTLB TIMELY PREFETCHES:          0 LATE PREFETCHES: 0 DROPPED PREFETCHES: 0
DTLB PREFETCHES SAME FILL-ORIGIN LEVEL: 0 DIFFERENT FILL-ORIGIN LEVEL: 0
DTLB AVERAGE MISS LATENCY: 27.0254 cycles
DTLB RQ	ACCESS:   23029465	FORWARD:          0	MERGED:    8321700	TO_CACHE:   14707765

STLB TOTAL     ACCESS:    1288346  HIT:     801527  MISS:     486819  HIT %:    62.2136  MISS %:    37.7864   MPKI: 9.73638
STLB LOAD TRANSLATION ACCESS:    1288346  HIT:     801527  MISS:     486819  HIT %:    62.2136  MISS %:    37.7864   MPKI: 9.73638
STLB PREFETCH  REQUESTED:          0  ISSUED:          0  USEFUL:          0  USELESS:          0
STLB USEFUL LOAD PREFETCHES:          0 PREFETCH ISSUED TO LOWER LEVEL:          0  ACCURACY: -nan
STLB TIMELY PREFETCHES:          0 LATE PREFETCHES: 0 DROPPED PREFETCHES: 0
STLB PREFETCHES SAME FILL-ORIGIN LEVEL: 0 DIFFERENT FILL-ORIGIN LEVEL: 0
STLB AVERAGE MISS LATENCY: 46.9177 cycles
STLB RQ	ACCESS:    1288347	FORWARD:          0	MERGED:          0	TO_CACHE:    1288347

STLB Hit, L1D data hit: 0
STLB Hit, L2C data hit: 0
STLB Hit, LLC data hit: 0
STLB Hit, LLC data miss: 0
STLB STLB hints to L2: 0
L1D TOTAL     ACCESS:   22981607  HIT:   22617716  MISS:     363891  HIT %:    98.4166  MISS %:     1.5834   MPKI: 7.27782
L1D LOAD      ACCESS:   15167741  HIT:   14874523  MISS:     293218  HIT %:    98.0668  MISS %:    1.93317   MPKI: 5.86436
L1D RFO       ACCESS:    7813866  HIT:    7743193  MISS:      70673  HIT %:    99.0955  MISS %:   0.904456   MPKI: 1.41346
L1D PREFETCH  REQUESTED:          0  ISSUED:          0  USEFUL:          0  USELESS:          0
L1D USEFUL LOAD PREFETCHES:          0 PREFETCH ISSUED TO LOWER LEVEL:          0  ACCURACY: -nan
L1D TIMELY PREFETCHES:          0 LATE PREFETCHES: 0 DROPPED PREFETCHES: 0
L1D PREFETCHES SAME FILL-ORIGIN LEVEL: 0 DIFFERENT FILL-ORIGIN LEVEL: 0
L1D AVERAGE MISS LATENCY: 161.391 cycles
L1D RQ	ACCESS:   25724003	FORWARD:          0	MERGED:   10418803	TO_CACHE:   15169404
L1D WQ	ACCESS:    8407615	FORWARD:     135796	MERGED:     547554	TO_CACHE:    7860061

L1D UNIQUE REGIONS ACCESSED: 0
L1D REGIONS CONFLICTS: 0
L1D Cross Page Prefetch Requests: 0
L1D Same Page Prefetch Requests: 0
L1D ROI Sum of L1D PQ occupancy: 0
L1D PREFETCHES PUSHED FROM L2C: 0
L1I TOTAL     ACCESS:    9879098  HIT:    9879098  MISS:          0  HIT %:        100  MISS %:          0   MPKI: 0
L1I LOAD      ACCESS:    9879098  HIT:    9879098  MISS:          0  HIT %:        100  MISS %:          0   MPKI: 0
L1I PREFETCH  REQUESTED:          0  ISSUED:          0  USEFUL:          0  USELESS:          0
L1I USEFUL LOAD PREFETCHES:          0 PREFETCH ISSUED TO LOWER LEVEL:          0  ACCURACY: -nan
L1I TIMELY PREFETCHES:          0 LATE PREFETCHES: 0 DROPPED PREFETCHES: 0
L1I PREFETCHES SAME FILL-ORIGIN LEVEL: 0 DIFFERENT FILL-ORIGIN LEVEL: 0
L1I AVERAGE MISS LATENCY: -nan cycles
L1I RQ	ACCESS:   16815775	FORWARD:          0	MERGED:    6936679	TO_CACHE:    9879096

BTB TOTAL     ACCESS:      60897  HIT:      60890  MISS:          7  HIT %:    99.9885  MISS %:  0.0114948   MPKI: 0.00014
BTB BRANCH_DIRECT_JUMP	ACCESS:        502  HIT:        500  MISS:          2
BTB BRANCH_INDIRECT	ACCESS:          0  HIT:          0  MISS:          0
BTB BRANCH_CONDITIONAL	ACCESS:      60395  HIT:      60390  MISS:          5
BTB BRANCH_DIRECT_CALL	ACCESS:          0  HIT:          0  MISS:          0
BTB BRANCH_INDIRECT_CALL	ACCESS:          0  HIT:          0  MISS:          0
BTB BRANCH_RETURN	ACCESS:          0  HIT:          0  MISS:          0
BTB BRANCH_OTHER ACCESS:          0  HIT:          0  MISS:          0

L2C TOTAL     ACCESS:    1373488  HIT:    1123465  MISS:     250023  HIT %:    81.7965  MISS %:    18.2035   MPKI: 5.00046
L2C LOAD      ACCESS:     293218  HIT:     114422  MISS:     178796  HIT %:    39.0228  MISS %:    60.9772   MPKI: 3.57592
L2C DATA LOAD MPKI: 3.57592
L2C INSTRUCTION LOAD MPKI: 0
L2C RFO       ACCESS:      70673  HIT:          2  MISS:      70671  HIT %: 0.00282994  MISS %:    99.9972   MPKI: 1.41342
L2C WRITEBACK ACCESS:      73526  HIT:      73455  MISS:         71  HIT %:    99.9034  MISS %:  0.0965645   MPKI: 0.00142
L2C LOAD TRANSLATION ACCESS:     936071  HIT:     935586  MISS:        485  HIT %:    99.9482  MISS %:  0.0518123   MPKI: 0.0097
L2C PREFETCH  REQUESTED:          0  ISSUED:          0  USEFUL:          0  USELESS:          0
L2C USEFUL LOAD PREFETCHES:          0 PREFETCH ISSUED TO LOWER LEVEL:          0  ACCURACY: -nan
L2C TIMELY PREFETCHES:          0 LATE PREFETCHES: 0 DROPPED PREFETCHES: 0
L2C PREFETCHES SAME FILL-ORIGIN LEVEL: 0 DIFFERENT FILL-ORIGIN LEVEL: 0
L2C AVERAGE MISS LATENCY: 212.886 cycles
L2C RQ	ACCESS:    1299963	FORWARD:          0	MERGED:          0	TO_CACHE:    1299963
L2C WQ	ACCESS:      73526	FORWARD:          0	MERGED:          0	TO_CACHE:      73526

L2C Instructions Evicting Data 0
L2C Translations Evicting Data 485
L2C Data Evicting Data 248994
L2C Instructions Evicting Instructions 0
L2C Translations Evicting Instructions 0
L2C Data Evicting Instructions 0
L2C Instructions Evicting Translations 0
L2C Translations Evicting Translations 0
L2C Data Evicting Translations 473
L2C Dense regions hint from L2: 0
PSCL5 TOTAL     ACCESS:     486820  HIT:     486820  MISS:          0  HIT %:        100  MISS %:          0   MPKI: 0
PSCL5 LOAD TRANSLATION ACCESS:     486820  HIT:     486820  MISS:          0  HIT %:        100  MISS %:          0   MPKI: 0
PSCL5 PREFETCH  REQUESTED:          0  ISSUED:          0  USEFUL:          0  USELESS:          0
PSCL5 USEFUL LOAD PREFETCHES:          0 PREFETCH ISSUED TO LOWER LEVEL:          0  ACCURACY: -nan
PSCL5 TIMELY PREFETCHES:          0 LATE PREFETCHES: 0 DROPPED PREFETCHES: 0
PSCL5 PREFETCHES SAME FILL-ORIGIN LEVEL: 0 DIFFERENT FILL-ORIGIN LEVEL: 0

PSCL4 TOTAL     ACCESS:     486820  HIT:     486820  MISS:          0  HIT %:        100  MISS %:          0   MPKI: 0
PSCL4 LOAD TRANSLATION ACCESS:     486820  HIT:     486820  MISS:          0  HIT %:        100  MISS %:          0   MPKI: 0
PSCL4 PREFETCH  REQUESTED:          0  ISSUED:          0  USEFUL:          0  USELESS:          0
PSCL4 USEFUL LOAD PREFETCHES:          0 PREFETCH ISSUED TO LOWER LEVEL:          0  ACCURACY: -nan
PSCL4 TIMELY PREFETCHES:          0 LATE PREFETCHES: 0 DROPPED PREFETCHES: 0
PSCL4 PREFETCHES SAME FILL-ORIGIN LEVEL: 0 DIFFERENT FILL-ORIGIN LEVEL: 0

PSCL3 TOTAL     ACCESS:     486820  HIT:     486820  MISS:          0  HIT %:        100  MISS %:          0   MPKI: 0
PSCL3 LOAD TRANSLATION ACCESS:     486820  HIT:     486820  MISS:          0  HIT %:        100  MISS %:          0   MPKI: 0
PSCL3 PREFETCH  REQUESTED:          0  ISSUED:          0  USEFUL:          0  USELESS:          0
PSCL3 USEFUL LOAD PREFETCHES:          0 PREFETCH ISSUED TO LOWER LEVEL:          0  ACCURACY: -nan
PSCL3 TIMELY PREFETCHES:          0 LATE PREFETCHES: 0 DROPPED PREFETCHES: 0
PSCL3 PREFETCHES SAME FILL-ORIGIN LEVEL: 0 DIFFERENT FILL-ORIGIN LEVEL: 0

PSCL2 TOTAL     ACCESS:     486819  HIT:      37568  MISS:     449251  HIT %:    7.71704  MISS %:     92.283   MPKI: 8.98502
PSCL2 LOAD TRANSLATION ACCESS:     486819  HIT:      37568  MISS:     449251  HIT %:    7.71704  MISS %:     92.283   MPKI: 8.98502
PSCL2 PREFETCH  REQUESTED:          0  ISSUED:          0  USEFUL:          0  USELESS:          0
PSCL2 USEFUL LOAD PREFETCHES:          0 PREFETCH ISSUED TO LOWER LEVEL:          0  ACCURACY: -nan
PSCL2 TIMELY PREFETCHES:          0 LATE PREFETCHES: 0 DROPPED PREFETCHES: 0
PSCL2 PREFETCHES SAME FILL-ORIGIN LEVEL: 0 DIFFERENT FILL-ORIGIN LEVEL: 0

LLC TOTAL     ACCESS:     320666  HIT:      70629  MISS:     250037  HIT %:    22.0257  MISS %:    77.9743   MPKI: 5.00074
LLC LOAD      ACCESS:     178796  HIT:          0  MISS:     178796  HIT %:          0  MISS %:        100   MPKI: 3.57592
LLC RFO       ACCESS:      70671  HIT:          0  MISS:      70671  HIT %:          0  MISS %:        100   MPKI: 1.41342
LLC WRITEBACK ACCESS:      70714  HIT:      70629  MISS:         85  HIT %:    99.8798  MISS %:   0.120203   MPKI: 0.0017
LLC LOAD TRANSLATION ACCESS:        485  HIT:          0  MISS:        485  HIT %:          0  MISS %:        100   MPKI: 0.0097
LLC PREFETCH  REQUESTED:          0  ISSUED:          0  USEFUL:          0  USELESS:          0
LLC USEFUL LOAD PREFETCHES:          0 PREFETCH ISSUED TO LOWER LEVEL:          0  ACCURACY: -nan
LLC TIMELY PREFETCHES:          0 LATE PREFETCHES: 0 DROPPED PREFETCHES: 0
LLC PREFETCHES SAME FILL-ORIGIN LEVEL: 0 DIFFERENT FILL-ORIGIN LEVEL: 0
LLC AVERAGE MISS LATENCY: 182.558 cycles
LLC RQ	ACCESS:     249952	FORWARD:          0	MERGED:          0	TO_CACHE:     249952
LLC WQ	ACCESS:      70714	FORWARD:          0	MERGED:          0	TO_CACHE:      70714

LLC Dense regions hint to LLC: 0

RAW hits: 3306666
Loads Generated: 29030685
Loads sent to L1D: 25724003
Stores Generated: 8407608
Stores sent to L1D: 8407615
Major fault: 0 Minor fault: 4630
Allocated PAGES: 4630

DRAM Statistics
 CHANNEL 0
 RQ ROW_BUFFER_HIT:      56900  ROW_BUFFER_MISS:     193052
 DBUS_CONGESTED:        186
 WQ ROW_BUFFER_HIT:      16715  ROW_BUFFER_MISS:      55585  FULL:          0

 AVG_CONGESTED_CYCLE: 4
 All warmup complete: 2
Channel 0 Bank busy for read cycles: 0
Channel 0 Bank busy for write cycles: 0
Channel 0
Rank 0
0banks busy for read cycles: 49843216
0banks busy for write cycles: 30990
1banks busy for read cycles: 15210988
1banks busy for write cycles: 4948489
2banks busy for read cycles: 2465140
2banks busy for write cycles: 1035669
3banks busy for read cycles: 1085868
3banks busy for write cycles: 621879
4banks busy for read cycles: 1636106
4banks busy for write cycles: 391190
5banks busy for read cycles: 368579
5banks busy for write cycles: 222046
6banks busy for read cycles: 4028
6banks busy for write cycles: 77552
7banks busy for read cycles: 241
7banks busy for write cycles: 75993
8banks busy for read cycles: 0
8banks busy for write cycles: 436144

CPU 0 Branch Prediction Accuracy: 99.1743% MPKI: 0.01016 Average ROB Occupancy at Mispredict: 246.154
Branch types
NOT_BRANCH: 49938478 99.877%
BRANCH_DIRECT_JUMP: 502 0.001004%
BRANCH_INDIRECT: 0 0%
BRANCH_CONDITIONAL: 61022 0.122044%
BRANCH_DIRECT_CALL: 0 0%
BRANCH_INDIRECT_CALL: 0 0%
BRANCH_RETURN: 0 0%
BRANCH_OTHER: 0 0%

DRAM PAGES: 1048576
Allocated PAGES: 4630
