
*** ChampSim Multicore Out-of-Order Simulator ***

Warmup Instructions: 50000000
Simulation Instructions: 50000000
Number of CPUs: 1
LLC sets: 2048
LLC ways: 16
Off-chip DRAM Size: 4096 MB Channels: 1 Width: 64-bit Data Rate: 6400 MT/s
CPU 0 runs traces/SPEC-CPU2017/462.libquantum-714B.champsimtrace.xz
.xz
CPU 0 Bimodal branch predictor
BTB has LRU replacement policy
ITLB has LRU replacement policy
DTLB has LRU replacement policy
STLB has LRU replacement policy
L1I has LRU replacement policy
L1D has LRU replacement policy
L2C has LRU replacement policy
LLC has LRU replacement policy
Heartbeat CPU 0 instructions: 10000001 cycles: 3582958 heartbeat IPC: 2.79099 cumulative IPC: 2.79099 (Simulation time: 0 hr 6 min 27 sec) 
Heartbeat CPU 0 instructions: 20000000 cycles: 6916288 heartbeat IPC: 3 cumulative IPC: 2.89172 (Simulation time: 0 hr 12 min 38 sec) 
Heartbeat CPU 0 instructions: 30000000 cycles: 10460603 heartbeat IPC: 2.82142 cumulative IPC: 2.8679 (Simulation time: 0 hr 17 min 13 sec) 
Heartbeat CPU 0 instructions: 40000000 cycles: 14091809 heartbeat IPC: 2.75391 cumulative IPC: 2.83853 (Simulation time: 0 hr 21 min 53 sec) 
Heartbeat CPU 0 instructions: 50000000 cycles: 17725050 heartbeat IPC: 2.75236 cumulative IPC: 2.82087 (Simulation time: 0 hr 26 min 32 sec) 

Warmup complete CPU 0 instructions: 50000004 cycles: 17725051 (Simulation time: 0 hr 26 min 32 sec) 

Heartbeat CPU 0 instructions: 60000000 cycles: 27725153 heartbeat IPC: 0.99999 cumulative IPC: 0.999989 (Simulation time: 0 hr 27 min 16 sec) 
Heartbeat CPU 0 instructions: 70000000 cycles: 37884269 heartbeat IPC: 0.984338 cumulative IPC: 0.992102 (Simulation time: 0 hr 27 min 59 sec) 
Heartbeat CPU 0 instructions: 80000000 cycles: 53681524 heartbeat IPC: 0.633021 cumulative IPC: 0.834342 (Simulation time: 0 hr 28 min 53 sec) 
Heartbeat CPU 0 instructions: 90000000 cycles: 66147689 heartbeat IPC: 0.802171 cumulative IPC: 0.82606 (Simulation time: 0 hr 29 min 41 sec) 
Heartbeat CPU 0 instructions: 100000000 cycles: 76488698 heartbeat IPC: 0.967024 cumulative IPC: 0.850866 (Simulation time: 0 hr 30 min 25 sec) 
Finished CPU 0 instructions: 50000002 cycles: 58763666 cumulative IPC: 0.850866 (Simulation time: 0 hr 30 min 25 sec) 

ChampSim completed all CPUs

Region of Interest Statistics

CPU 0 cumulative IPC: 0.850866 instructions: 50000002 cycles: 58763666
ITLB TOTAL     ACCESS:   10029515  HIT:   10029515  MISS:          0  HIT %:        100  MISS %:          0   MPKI: 0
ITLB LOAD TRANSLATION ACCESS:   10029515  HIT:   10029515  MISS:          0  HIT %:        100  MISS %:          0   MPKI: 0
ITLB PREFETCH  REQUESTED:          0  ISSUED:          0  USEFUL:          0  USELESS:          0
ITLB USEFUL LOAD PREFETCHES:          0 PREFETCH ISSUED TO LOWER LEVEL:          0  ACCURACY: -nan
ITLB TIMELY PREFETCHES:          0 LATE PREFETCHES: 0 DROPPED PREFETCHES: 0
ITLB PREFETCHES SAME FILL-ORIGIN LEVEL: 0 DIFFERENT FILL-ORIGIN LEVEL: 0
ITLB AVERAGE MISS LATENCY: -nan cycles
ITLB RQ	ACCESS:   11091405	FORWARD:          0	MERGED:    1061891	TO_CACHE:   10029514

DTLB TOTAL     ACCESS:    7024127  HIT:    7003396  MISS:      20731  HIT %:    99.7049  MISS %:    0.29514   MPKI: 0.41462
DTLB LOAD TRANSLATION ACCESS:    7024127  HIT:    7003396  MISS:      20731  HIT %:    99.7049  MISS %:    0.29514   MPKI: 0.41462
DTLB PREFETCH  REQUESTED:          0  ISSUED:          0  USEFUL:          0  USELESS:          0
DTLB USEFUL LOAD PREFETCHES:          0 PREFETCH ISSUED TO LOWER LEVEL:          0  ACCURACY: -nan
DTLB TIMELY PREFETCHES:          0 LATE PREFETCHES: 0 DROPPED PREFETCHES: 0
DTLB PREFETCHES SAME FILL-ORIGIN LEVEL: 0 DIFFERENT FILL-ORIGIN LEVEL: 0
DTLB AVERAGE MISS LATENCY: 12.536 cycles
DTLB RQ	ACCESS:    8360328	FORWARD:          0	MERGED:    1333052	TO_CACHE:    7027276

STLB TOTAL     ACCESS:    1121598  HIT:    1100868  MISS:      20730  HIT %:    98.1517  MISS %:    1.84826   MPKI: 0.4146
STLB LOAD TRANSLATION ACCESS:      20731  HIT:      19093  MISS:       1638  HIT %:    92.0988  MISS %:    7.90121   MPKI: 0.03276
STLB TRANSLATION FROM L1D PREFETCHER ACCESS:    1100867  HIT:    1081775  MISS:      19092  HIT %:    98.2657  MISS %:    1.73427   MPKI: 0.38184
STLB PREFETCH  REQUESTED:          0  ISSUED:          0  USEFUL:      19092  USELESS:          0
STLB USEFUL LOAD PREFETCHES:      19092 PREFETCH ISSUED TO LOWER LEVEL:          0  ACCURACY: inf
STLB TIMELY PREFETCHES:      19092 LATE PREFETCHES: 735 DROPPED PREFETCHES: 0
STLB PREFETCHES SAME FILL-ORIGIN LEVEL: 0 DIFFERENT FILL-ORIGIN LEVEL: 0
STLB AVERAGE MISS LATENCY: 54.4506 cycles
STLB RQ	ACCESS:    1344097	FORWARD:          0	MERGED:     204569	TO_CACHE:    1139528

STLB Hit, L1D data hit: 0
STLB Hit, L2C data hit: 0
STLB Hit, LLC data hit: 0
STLB Hit, LLC data miss: 0
STLB STLB hints to L2: 0
L1D TOTAL     ACCESS:    9583237  HIT:    8256725  MISS:    1326512  HIT %:     86.158  MISS %:     13.842   MPKI: 26.5302
L1D LOAD      ACCESS:    6226127  HIT:    6147597  MISS:      78530  HIT %:    98.7387  MISS %:     1.2613   MPKI: 1.5706
L1D RFO       ACCESS:    2108692  HIT:    2108684  MISS:          8  HIT %:    99.9996  MISS %: 0.000379382   MPKI: 0.00016
L1D PREFETCH  ACCESS:    1248418  HIT:        444  MISS:    1247974  HIT %:   0.035565  MISS %:    99.9644   MPKI: 24.9595
AGUS PREFETCH L1 MISS: 0
L1D PREFETCH  REQUESTED:    2649441  ISSUED:    2646732  USEFUL:    1247964  USELESS:         12
L1D USEFUL LOAD PREFETCHES:    1247964 PREFETCH ISSUED TO LOWER LEVEL:    1320512  ACCURACY: 94.5061
L1D TIMELY PREFETCHES:    1247964 LATE PREFETCHES: 72536 DROPPED PREFETCHES: 0
L1D PREFETCHES SAME FILL-ORIGIN LEVEL: 1320512 DIFFERENT FILL-ORIGIN LEVEL: 0
L1D AVERAGE MISS LATENCY: 204.379 cycles
L1D RQ	ACCESS:   15917877	FORWARD:          0	MERGED:    9666253	TO_CACHE:    6251620
L1D WQ	ACCESS:    2108708	FORWARD:          4	MERGED:          0	TO_CACHE:    2108708
L1D PQ	ACCESS:    1323366	FORWARD:          0	MERGED:          0	TO_CACHE:    1323366

L1D UNIQUE REGIONS ACCESSED: 0
L1D REGIONS CONFLICTS: 0
L1D Cross Page Prefetch Requests: 253214
L1D Same Page Prefetch Requests: 2388131
L1D ROI Sum of L1D PQ occupancy: 20051966
L1D PREFETCHES PUSHED FROM L2C: 0
L1I TOTAL     ACCESS:   11091405  HIT:   11091405  MISS:          0  HIT %:        100  MISS %:          0   MPKI: 0
L1I LOAD      ACCESS:   11091405  HIT:   11091405  MISS:          0  HIT %:        100  MISS %:          0   MPKI: 0
L1I PREFETCH  REQUESTED:          0  ISSUED:          0  USEFUL:          0  USELESS:          0
L1I USEFUL LOAD PREFETCHES:          0 PREFETCH ISSUED TO LOWER LEVEL:          0  ACCURACY: -nan
L1I TIMELY PREFETCHES:          0 LATE PREFETCHES: 0 DROPPED PREFETCHES: 0
L1I PREFETCHES SAME FILL-ORIGIN LEVEL: 0 DIFFERENT FILL-ORIGIN LEVEL: 0
L1I AVERAGE MISS LATENCY: -nan cycles
L1I RQ	ACCESS:   18129124	FORWARD:          0	MERGED:    7037719	TO_CACHE:   11091405

BTB TOTAL     ACCESS:    8514768  HIT:    8514745  MISS:         23  HIT %:    99.9997  MISS %: 0.000270119   MPKI: 0.00046
BTB BRANCH_DIRECT_JUMP	ACCESS:          0  HIT:          0  MISS:          0
BTB BRANCH_INDIRECT	ACCESS:          2  HIT:          1  MISS:          1
BTB BRANCH_CONDITIONAL	ACCESS:    8514746  HIT:    8514742  MISS:          4
BTB BRANCH_DIRECT_CALL	ACCESS:         10  HIT:          1  MISS:          9
BTB BRANCH_INDIRECT_CALL	ACCESS:          0  HIT:          0  MISS:          0
BTB BRANCH_RETURN	ACCESS:         10  HIT:          1  MISS:          9
BTB BRANCH_OTHER ACCESS:          0  HIT:          0  MISS:          0

L2C TOTAL     ACCESS:    1883031  HIT:     553924  MISS:    1329107  HIT %:    29.4166  MISS %:    70.5834   MPKI: 26.5821
L2C LOAD      ACCESS:       5994  HIT:          0  MISS:       5994  HIT %:          0  MISS %:        100   MPKI: 0.11988
L2C DATA LOAD MPKI: 0.11988
L2C INSTRUCTION LOAD MPKI: 0
L2C RFO       ACCESS:          8  HIT:          0  MISS:          8  HIT %:          0  MISS %:        100   MPKI: 0.00016
L2C PREFETCH  ACCESS:    1320510  HIT:          0  MISS:    1320510  HIT %:          0  MISS %:        100   MPKI: 26.4102
AGUS PREFETCH L1 MISS: 0
L2C DATA PREFETCH MPKI: 26.4102
L2C INSTRUCTION PREFETCH MPKI: 0
L2C WRITEBACK ACCESS:     535789  HIT:     535789  MISS:          0  HIT %:        100  MISS %:          0   MPKI: 0
L2C LOAD TRANSLATION ACCESS:        903  HIT:        899  MISS:          4  HIT %:     99.557  MISS %:   0.442968   MPKI: 8e-05
L2C TRANSLATION FROM L1D PREFETCHER ACCESS:      19827  HIT:      17236  MISS:       2591  HIT %:     86.932  MISS %:     13.068   MPKI: 0.05182
L2C PREFETCH  REQUESTED:          0  ISSUED:          0  USEFUL:       2591  USELESS:    1320500
L2C USEFUL LOAD PREFETCHES:       2591 PREFETCH ISSUED TO LOWER LEVEL:    1320512  ACCURACY: 0.196212
L2C TIMELY PREFETCHES:       2591 LATE PREFETCHES: 0 DROPPED PREFETCHES: 0
L2C PREFETCHES SAME FILL-ORIGIN LEVEL: 0 DIFFERENT FILL-ORIGIN LEVEL: 0
L2C AVERAGE MISS LATENCY: 189.475 cycles
L2C RQ	ACCESS:      26732	FORWARD:          0	MERGED:          0	TO_CACHE:      26732
L2C WQ	ACCESS:     535789	FORWARD:          0	MERGED:          0	TO_CACHE:     535789
L2C PQ	ACCESS:    1320512	FORWARD:          0	MERGED:          0	TO_CACHE:    1320512

L2C Instructions Evicting Data 0
L2C Translations Evicting Data 2595
L2C Data Evicting Data 1323915
L2C Instructions Evicting Instructions 0
L2C Translations Evicting Instructions 0
L2C Data Evicting Instructions 0
L2C Instructions Evicting Translations 0
L2C Translations Evicting Translations 0
L2C Data Evicting Translations 2597
L2C Dense regions hint from L2: 0
PSCL5 TOTAL     ACCESS:      20730  HIT:      20730  MISS:          0  HIT %:        100  MISS %:          0   MPKI: 0
PSCL5 LOAD TRANSLATION ACCESS:        903  HIT:        903  MISS:          0  HIT %:        100  MISS %:          0   MPKI: 0
PSCL5 TRANSLATION FROM L1D PREFETCHER ACCESS:      19827  HIT:      19827  MISS:          0  HIT %:        100  MISS %:          0   MPKI: 0
PSCL5 PREFETCH  REQUESTED:          0  ISSUED:          0  USEFUL:          0  USELESS:          0
PSCL5 USEFUL LOAD PREFETCHES:          0 PREFETCH ISSUED TO LOWER LEVEL:          0  ACCURACY: -nan
PSCL5 TIMELY PREFETCHES:          0 LATE PREFETCHES: 0 DROPPED PREFETCHES: 0
PSCL5 PREFETCHES SAME FILL-ORIGIN LEVEL: 0 DIFFERENT FILL-ORIGIN LEVEL: 0

PSCL4 TOTAL     ACCESS:      20730  HIT:      20730  MISS:          0  HIT %:        100  MISS %:          0   MPKI: 0
PSCL4 LOAD TRANSLATION ACCESS:        903  HIT:        903  MISS:          0  HIT %:        100  MISS %:          0   MPKI: 0
PSCL4 TRANSLATION FROM L1D PREFETCHER ACCESS:      19827  HIT:      19827  MISS:          0  HIT %:        100  MISS %:          0   MPKI: 0
PSCL4 PREFETCH  REQUESTED:          0  ISSUED:          0  USEFUL:          0  USELESS:          0
PSCL4 USEFUL LOAD PREFETCHES:          0 PREFETCH ISSUED TO LOWER LEVEL:          0  ACCURACY: -nan
PSCL4 TIMELY PREFETCHES:          0 LATE PREFETCHES: 0 DROPPED PREFETCHES: 0
PSCL4 PREFETCHES SAME FILL-ORIGIN LEVEL: 0 DIFFERENT FILL-ORIGIN LEVEL: 0

PSCL3 TOTAL     ACCESS:      20730  HIT:      20730  MISS:          0  HIT %:        100  MISS %:          0   MPKI: 0
PSCL3 LOAD TRANSLATION ACCESS:        903  HIT:        903  MISS:          0  HIT %:        100  MISS %:          0   MPKI: 0
PSCL3 TRANSLATION FROM L1D PREFETCHER ACCESS:      19827  HIT:      19827  MISS:          0  HIT %:        100  MISS %:          0   MPKI: 0
PSCL3 PREFETCH  REQUESTED:          0  ISSUED:          0  USEFUL:          0  USELESS:          0
PSCL3 USEFUL LOAD PREFETCHES:          0 PREFETCH ISSUED TO LOWER LEVEL:          0  ACCURACY: -nan
PSCL3 TIMELY PREFETCHES:          0 LATE PREFETCHES: 0 DROPPED PREFETCHES: 0
PSCL3 PREFETCHES SAME FILL-ORIGIN LEVEL: 0 DIFFERENT FILL-ORIGIN LEVEL: 0

PSCL2 TOTAL     ACCESS:      20730  HIT:      20730  MISS:          0  HIT %:        100  MISS %:          0   MPKI: 0
PSCL2 LOAD TRANSLATION ACCESS:        903  HIT:        903  MISS:          0  HIT %:        100  MISS %:          0   MPKI: 0
PSCL2 TRANSLATION FROM L1D PREFETCHER ACCESS:      19827  HIT:      19827  MISS:          0  HIT %:        100  MISS %:          0   MPKI: 0
PSCL2 PREFETCH  REQUESTED:          0  ISSUED:          0  USEFUL:          0  USELESS:          0
PSCL2 USEFUL LOAD PREFETCHES:          0 PREFETCH ISSUED TO LOWER LEVEL:          0  ACCURACY: -nan
PSCL2 TIMELY PREFETCHES:          0 LATE PREFETCHES: 0 DROPPED PREFETCHES: 0
PSCL2 PREFETCHES SAME FILL-ORIGIN LEVEL: 0 DIFFERENT FILL-ORIGIN LEVEL: 0

LLC TOTAL     ACCESS:    1864665  HIT:     535558  MISS:    1329107  HIT %:    28.7214  MISS %:    71.2786   MPKI: 26.5821
LLC LOAD      ACCESS:       5994  HIT:          0  MISS:       5994  HIT %:          0  MISS %:        100   MPKI: 0.11988
LLC RFO       ACCESS:          8  HIT:          0  MISS:          8  HIT %:          0  MISS %:        100   MPKI: 0.00016
LLC PREFETCH  ACCESS:    1320510  HIT:          0  MISS:    1320510  HIT %:          0  MISS %:        100   MPKI: 26.4102
AGUS PREFETCH L1 MISS: 0
LLC WRITEBACK ACCESS:     535558  HIT:     535558  MISS:          0  HIT %:        100  MISS %:          0   MPKI: 0
LLC LOAD TRANSLATION ACCESS:          4  HIT:          0  MISS:          4  HIT %:          0  MISS %:        100   MPKI: 8e-05
LLC TRANSLATION FROM L1D PREFETCHER ACCESS:       2591  HIT:          0  MISS:       2591  HIT %:          0  MISS %:        100   MPKI: 0.05182
LLC PREFETCH  REQUESTED:          0  ISSUED:          0  USEFUL:          0  USELESS:    1323072
LLC USEFUL LOAD PREFETCHES:          0 PREFETCH ISSUED TO LOWER LEVEL:    1320511  ACCURACY: 0
LLC TIMELY PREFETCHES:          0 LATE PREFETCHES: 0 DROPPED PREFETCHES: 0
LLC PREFETCHES SAME FILL-ORIGIN LEVEL: 0 DIFFERENT FILL-ORIGIN LEVEL: 0
LLC AVERAGE MISS LATENCY: 159.475 cycles
LLC RQ	ACCESS:       8597	FORWARD:          0	MERGED:          0	TO_CACHE:       8597
LLC WQ	ACCESS:     535558	FORWARD:          0	MERGED:          0	TO_CACHE:     535558
LLC PQ	ACCESS:    1320512	FORWARD:          0	MERGED:          0	TO_CACHE:    1320512

LLC Dense regions hint to LLC: 0

RAW hits: 4
Loads Generated: 15917885
Loads sent to L1D: 15917877
Stores Generated: 2108708
Stores sent to L1D: 2108708
Major fault: 0 Minor fault: 8227
Allocated PAGES: 8227

stream: 
stream:times selected: 3172494
stream:pref_reqs: 17951147
stream:pref_reqs_filtered_out: 17423300
stream:pref_filled: 524415
stream:pref_useful: 524385
stream:pref_late: 1596
stream:misses: 0
stream:misses_by_poll: 0

CS: 
CS:times selected: 3061674
CS:pref_reqs: 9032941
CS:pref_reqs_filtered_out: 8878557
CS:pref_filled: 2003
CS:pref_useful: 2003
CS:pref_late: 59
CS:misses: 6287
CS:misses_by_poll: 4

CPLX: 
CPLX:times selected: 110771
CPLX:pref_reqs: 306834
CPLX:pref_reqs_filtered_out: 305357
CPLX:pref_filled: 1445
CPLX:pref_useful: 1445
CPLX:pref_late: 8
CPLX:misses: 1
CPLX:misses_by_poll: 3

ISB: 
ISB:total access:15443296
ISB:times selected:7583291
ISB:canary counter:0
ISB:pref_reqs: 50059516
ISB:pref_reqs_filtered_out: 47946917
ISB:pref_filled: 2037547
ISB:pref_useful: 2037541
ISB:pref_late: 70870
ISB:misses: 113060
ISB:misses_by_poll: 20174
ISB:Stream end: 1347224
ISB:No Prediction: 7860005 50.8959
ISB:No translation: 664118002
ISB:Predictions: 2110176 13.664

NL_L1: 
NL:times selected: 0
NL:pref_reqs: 0
NL:pref_reqs_filtered_out: 0
NL:pref_filled: 0
NL:pref_useful: 0
NL:pref_late: 0
NL:misses: 0
NL:misses_by_poll: 0

Coverage: 94.0799
total selections: 13928230
total_filled: 1247974
total_useful: 1247964
total_late: 72759
total_polluted: 20181
total_misses_after_warmup: 104022
conflicts: 31

test: 0
ISB Prefetcher final stats
Prefetcher final stats
Training Unit Size: 20
Addr table size: 524032 524032
Triggers: 15443296
Structural address exists: 7583291 49.1041
No Prediction: 7860005 50.8959
Prefetches issued: 2110176 13.664
Stream end: 1347224
No translation: 664118002
%Stream divergence: 702 0.00454566
Stream divergence -- new stream: 0
A: 18042341
B: 18042341
C: 3172495
D: 3172495
E: 3172495
F: 18042341
G: 48

DRAM Statistics
 CHANNEL 0
 RQ ROW_BUFFER_HIT:     820914  ROW_BUFFER_MISS:     508194
 DBUS_CONGESTED:      35559
 WQ ROW_BUFFER_HIT:      77711  ROW_BUFFER_MISS:     457033  FULL:          0

 AVG_CONGESTED_CYCLE: 4
 All warmup complete: 2
Channel 0 Bank busy for read cycles: 0
Channel 0 Bank busy for write cycles: 0
Channel 0
Rank 0
0banks busy for read cycles: 1590972
0banks busy for write cycles: 10382
1banks busy for read cycles: 23201718
1banks busy for write cycles: 2012049
2banks busy for read cycles: 9776817
2banks busy for write cycles: 57579
3banks busy for read cycles: 1372842
3banks busy for write cycles: 57568
4banks busy for read cycles: 466843
4banks busy for write cycles: 57521
5banks busy for read cycles: 377208
5banks busy for write cycles: 57522
6banks busy for read cycles: 424192
6banks busy for write cycles: 60137
7banks busy for read cycles: 389445
7banks busy for write cycles: 581959
8banks busy for read cycles: 7722379
8banks busy for write cycles: 10546534

CPU 0 Branch Prediction Accuracy: 99.8647% MPKI: 0.2304 Average ROB Occupancy at Mispredict: 46.6118
Branch types
NOT_BRANCH: 41485260 82.9705%
BRANCH_DIRECT_JUMP: 0 0%
BRANCH_INDIRECT: 2 4e-06%
BRANCH_CONDITIONAL: 8514760 17.0295%
BRANCH_DIRECT_CALL: 10 2e-05%
BRANCH_INDIRECT_CALL: 0 0%
BRANCH_RETURN: 10 2e-05%
BRANCH_OTHER: 0 0%

DRAM PAGES: 1048576
Allocated PAGES: 8227
