
*** ChampSim Multicore Out-of-Order Simulator ***

Warmup Instructions: 50000000
Simulation Instructions: 50000000
Number of CPUs: 1
LLC sets: 2048
LLC ways: 16
Off-chip DRAM Size: 4096 MB Channels: 1 Width: 64-bit Data Rate: 6400 MT/s
CPU 0 runs traces/SPEC-CPU2017/462.libquantum-714B.champsimtrace.xz
.xz
CPU 0 Bimodal branch predictor
BTB has LRU replacement policy
ITLB has LRU replacement policy
DTLB has LRU replacement policy
STLB has LRU replacement policy
L1I has LRU replacement policy
L1D has LRU replacement policy
L2C has LRU replacement policy
LLC has LRU replacement policy
Heartbeat CPU 0 instructions: 10000001 cycles: 3582958 heartbeat IPC: 2.79099 cumulative IPC: 2.79099 (Simulation time: 0 hr 4 min 36 sec) 
Heartbeat CPU 0 instructions: 20000000 cycles: 6916288 heartbeat IPC: 3 cumulative IPC: 2.89172 (Simulation time: 0 hr 8 min 58 sec) 
Heartbeat CPU 0 instructions: 30000000 cycles: 10460603 heartbeat IPC: 2.82142 cumulative IPC: 2.8679 (Simulation time: 0 hr 13 min 31 sec) 
Heartbeat CPU 0 instructions: 40000000 cycles: 14091809 heartbeat IPC: 2.75391 cumulative IPC: 2.83853 (Simulation time: 0 hr 18 min 6 sec) 
Heartbeat CPU 0 instructions: 50000000 cycles: 17725050 heartbeat IPC: 2.75236 cumulative IPC: 2.82087 (Simulation time: 0 hr 22 min 43 sec) 

Warmup complete CPU 0 instructions: 50000004 cycles: 17725051 (Simulation time: 0 hr 22 min 43 sec) 

Heartbeat CPU 0 instructions: 60000000 cycles: 27740887 heartbeat IPC: 0.998419 cumulative IPC: 0.998419 (Simulation time: 0 hr 23 min 31 sec) 
Heartbeat CPU 0 instructions: 70000000 cycles: 37916175 heartbeat IPC: 0.982773 cumulative IPC: 0.990534 (Simulation time: 0 hr 24 min 18 sec) 
Heartbeat CPU 0 instructions: 80000000 cycles: 53400327 heartbeat IPC: 0.645822 cumulative IPC: 0.840918 (Simulation time: 0 hr 25 min 38 sec) 
Heartbeat CPU 0 instructions: 90000000 cycles: 65839674 heartbeat IPC: 0.803901 cumulative IPC: 0.831348 (Simulation time: 0 hr 26 min 51 sec) 
Heartbeat CPU 0 instructions: 100000000 cycles: 76214149 heartbeat IPC: 0.963904 cumulative IPC: 0.85486 (Simulation time: 0 hr 28 min 0 sec) 
Finished CPU 0 instructions: 50000002 cycles: 58489117 cumulative IPC: 0.85486 (Simulation time: 0 hr 28 min 0 sec) 

ChampSim completed all CPUs

Region of Interest Statistics

CPU 0 cumulative IPC: 0.85486 instructions: 50000002 cycles: 58489117
ITLB TOTAL     ACCESS:    9980584  HIT:    9980584  MISS:          0  HIT %:        100  MISS %:          0   MPKI: 0
ITLB LOAD TRANSLATION ACCESS:    9980584  HIT:    9980584  MISS:          0  HIT %:        100  MISS %:          0   MPKI: 0
ITLB PREFETCH  REQUESTED:          0  ISSUED:          0  USEFUL:          0  USELESS:          0
ITLB USEFUL LOAD PREFETCHES:          0 PREFETCH ISSUED TO LOWER LEVEL:          0  ACCURACY: -nan
ITLB TIMELY PREFETCHES:          0 LATE PREFETCHES: 0 DROPPED PREFETCHES: 0
ITLB PREFETCHES SAME FILL-ORIGIN LEVEL: 0 DIFFERENT FILL-ORIGIN LEVEL: 0
ITLB AVERAGE MISS LATENCY: -nan cycles
ITLB RQ	ACCESS:   11041910	FORWARD:          0	MERGED:    1061327	TO_CACHE:    9980583

DTLB TOTAL     ACCESS:    7099648  HIT:    7078917  MISS:      20731  HIT %:     99.708  MISS %:      0.292   MPKI: 0.41462
DTLB LOAD TRANSLATION ACCESS:    7099648  HIT:    7078917  MISS:      20731  HIT %:     99.708  MISS %:      0.292   MPKI: 0.41462
DTLB PREFETCH  REQUESTED:          0  ISSUED:          0  USEFUL:          0  USELESS:          0
DTLB USEFUL LOAD PREFETCHES:          0 PREFETCH ISSUED TO LOWER LEVEL:          0  ACCURACY: -nan
DTLB TIMELY PREFETCHES:          0 LATE PREFETCHES: 0 DROPPED PREFETCHES: 0
DTLB PREFETCHES SAME FILL-ORIGIN LEVEL: 0 DIFFERENT FILL-ORIGIN LEVEL: 0
DTLB AVERAGE MISS LATENCY: 9.0589 cycles
DTLB RQ	ACCESS:    8340069	FORWARD:          0	MERGED:    1240347	TO_CACHE:    7099722

STLB TOTAL     ACCESS:    1019419  HIT:     998688  MISS:      20731  HIT %:    97.9664  MISS %:    2.03361   MPKI: 0.41462
STLB LOAD TRANSLATION ACCESS:      20731  HIT:      20711  MISS:         20  HIT %:    99.9035  MISS %:  0.0964739   MPKI: 0.0004
STLB TRANSLATION FROM L1D PREFETCHER ACCESS:     998688  HIT:     977977  MISS:      20711  HIT %:    97.9262  MISS %:    2.07382   MPKI: 0.41422
STLB PREFETCH  REQUESTED:          0  ISSUED:          0  USEFUL:      20711  USELESS:          0
STLB USEFUL LOAD PREFETCHES:      20711 PREFETCH ISSUED TO LOWER LEVEL:          0  ACCURACY: inf
STLB TIMELY PREFETCHES:      20711 LATE PREFETCHES: 0 DROPPED PREFETCHES: 0
STLB PREFETCHES SAME FILL-ORIGIN LEVEL: 0 DIFFERENT FILL-ORIGIN LEVEL: 0
STLB AVERAGE MISS LATENCY: 55.4052 cycles
STLB RQ	ACCESS:    1390365	FORWARD:          0	MERGED:     370111	TO_CACHE:    1020254

STLB Hit, L1D data hit: 0
STLB Hit, L2C data hit: 0
STLB Hit, LLC data hit: 0
STLB Hit, LLC data miss: 0
STLB STLB hints to L2: 0
L1D TOTAL     ACCESS:    9337430  HIT:    8010915  MISS:    1326515  HIT %:    85.7936  MISS %:    14.2064   MPKI: 26.5303
L1D LOAD      ACCESS:    6078185  HIT:    5845718  MISS:     232467  HIT %:    96.1754  MISS %:    3.82461   MPKI: 4.64934
L1D RFO       ACCESS:    2108692  HIT:    2108684  MISS:          8  HIT %:    99.9996  MISS %: 0.000379382   MPKI: 0.00016
L1D PREFETCH  ACCESS:    1150553  HIT:      56513  MISS:    1094040  HIT %:    4.91181  MISS %:    95.0882   MPKI: 21.8808
AGUS PREFETCH L1 MISS: 0
L1D PREFETCH  REQUESTED:    2897310  ISSUED:    2739268  USEFUL:    1094027  USELESS:          9
L1D USEFUL LOAD PREFETCHES:    1094027 PREFETCH ISSUED TO LOWER LEVEL:    1306091  ACCURACY: 83.7635
L1D TIMELY PREFETCHES:    1094027 LATE PREFETCHES: 212049 DROPPED PREFETCHES: 0
L1D PREFETCHES SAME FILL-ORIGIN LEVEL: 1306091 DIFFERENT FILL-ORIGIN LEVEL: 0
L1D AVERAGE MISS LATENCY: 191.483 cycles
L1D RQ	ACCESS:   15917877	FORWARD:          0	MERGED:    9686512	TO_CACHE:    6231361
L1D WQ	ACCESS:    2108708	FORWARD:          4	MERGED:          0	TO_CACHE:    2108708
L1D PQ	ACCESS:    1369634	FORWARD:          0	MERGED:          0	TO_CACHE:    1369634

L1D UNIQUE REGIONS ACCESSED: 0
L1D REGIONS CONFLICTS: 0
L1D Cross Page Prefetch Requests: 101947
L1D Same Page Prefetch Requests: 2601623
L1D ROI Sum of L1D PQ occupancy: 21112183
L1D PREFETCHES PUSHED FROM L2C: 0
L1I TOTAL     ACCESS:   11041910  HIT:   11041910  MISS:          0  HIT %:        100  MISS %:          0   MPKI: 0
L1I LOAD      ACCESS:   11041910  HIT:   11041910  MISS:          0  HIT %:        100  MISS %:          0   MPKI: 0
L1I PREFETCH  REQUESTED:          0  ISSUED:          0  USEFUL:          0  USELESS:          0
L1I USEFUL LOAD PREFETCHES:          0 PREFETCH ISSUED TO LOWER LEVEL:          0  ACCURACY: -nan
L1I TIMELY PREFETCHES:          0 LATE PREFETCHES: 0 DROPPED PREFETCHES: 0
L1I PREFETCHES SAME FILL-ORIGIN LEVEL: 0 DIFFERENT FILL-ORIGIN LEVEL: 0
L1I AVERAGE MISS LATENCY: -nan cycles
L1I RQ	ACCESS:   18122125	FORWARD:          0	MERGED:    7080215	TO_CACHE:   11041910

BTB TOTAL     ACCESS:    8514768  HIT:    8514745  MISS:         23  HIT %:    99.9997  MISS %: 0.000270119   MPKI: 0.00046
BTB BRANCH_DIRECT_JUMP	ACCESS:          0  HIT:          0  MISS:          0
BTB BRANCH_INDIRECT	ACCESS:          2  HIT:          1  MISS:          1
BTB BRANCH_CONDITIONAL	ACCESS:    8514746  HIT:    8514742  MISS:          4
BTB BRANCH_DIRECT_CALL	ACCESS:         10  HIT:          1  MISS:          9
BTB BRANCH_INDIRECT_CALL	ACCESS:          0  HIT:          0  MISS:          0
BTB BRANCH_RETURN	ACCESS:         10  HIT:          1  MISS:          9
BTB BRANCH_OTHER ACCESS:          0  HIT:          0  MISS:          0

L2C TOTAL     ACCESS:    1883036  HIT:     553926  MISS:    1329110  HIT %:    29.4166  MISS %:    70.5834   MPKI: 26.5822
L2C LOAD      ACCESS:      20418  HIT:          0  MISS:      20418  HIT %:          0  MISS %:        100   MPKI: 0.40836
L2C DATA LOAD MPKI: 0.40836
L2C INSTRUCTION LOAD MPKI: 0
L2C RFO       ACCESS:          8  HIT:          0  MISS:          8  HIT %:          0  MISS %:        100   MPKI: 0.00016
L2C PREFETCH  ACCESS:    1306089  HIT:          0  MISS:    1306089  HIT %:          0  MISS %:        100   MPKI: 26.1218
AGUS PREFETCH L1 MISS: 0
L2C DATA PREFETCH MPKI: 26.1218
L2C INSTRUCTION PREFETCH MPKI: 0
L2C WRITEBACK ACCESS:     535790  HIT:     535790  MISS:          0  HIT %:        100  MISS %:          0   MPKI: 0
L2C LOAD TRANSLATION ACCESS:         20  HIT:         16  MISS:          4  HIT %:         80  MISS %:         20   MPKI: 8e-05
L2C TRANSLATION FROM L1D PREFETCHER ACCESS:      20711  HIT:      18120  MISS:       2591  HIT %:    87.4897  MISS %:    12.5103   MPKI: 0.05182
L2C PREFETCH  REQUESTED:          0  ISSUED:          0  USEFUL:       2591  USELESS:    1306147
L2C USEFUL LOAD PREFETCHES:       2591 PREFETCH ISSUED TO LOWER LEVEL:    1306091  ACCURACY: 0.198378
L2C TIMELY PREFETCHES:       2591 LATE PREFETCHES: 0 DROPPED PREFETCHES: 0
L2C PREFETCHES SAME FILL-ORIGIN LEVEL: 0 DIFFERENT FILL-ORIGIN LEVEL: 0
L2C AVERAGE MISS LATENCY: 176.331 cycles
L2C RQ	ACCESS:      41157	FORWARD:          0	MERGED:          0	TO_CACHE:      41157
L2C WQ	ACCESS:     535790	FORWARD:          0	MERGED:          0	TO_CACHE:     535790
L2C PQ	ACCESS:    1306091	FORWARD:          0	MERGED:          0	TO_CACHE:    1306091

L2C Instructions Evicting Data 0
L2C Translations Evicting Data 2595
L2C Data Evicting Data 1323919
L2C Instructions Evicting Instructions 0
L2C Translations Evicting Instructions 0
L2C Data Evicting Instructions 0
L2C Instructions Evicting Translations 0
L2C Translations Evicting Translations 0
L2C Data Evicting Translations 2596
L2C Dense regions hint from L2: 0
PSCL5 TOTAL     ACCESS:      20731  HIT:      20731  MISS:          0  HIT %:        100  MISS %:          0   MPKI: 0
PSCL5 LOAD TRANSLATION ACCESS:         20  HIT:         20  MISS:          0  HIT %:        100  MISS %:          0   MPKI: 0
PSCL5 TRANSLATION FROM L1D PREFETCHER ACCESS:      20711  HIT:      20711  MISS:          0  HIT %:        100  MISS %:          0   MPKI: 0
PSCL5 PREFETCH  REQUESTED:          0  ISSUED:          0  USEFUL:          0  USELESS:          0
PSCL5 USEFUL LOAD PREFETCHES:          0 PREFETCH ISSUED TO LOWER LEVEL:          0  ACCURACY: -nan
PSCL5 TIMELY PREFETCHES:          0 LATE PREFETCHES: 0 DROPPED PREFETCHES: 0
PSCL5 PREFETCHES SAME FILL-ORIGIN LEVEL: 0 DIFFERENT FILL-ORIGIN LEVEL: 0

PSCL4 TOTAL     ACCESS:      20731  HIT:      20731  MISS:          0  HIT %:        100  MISS %:          0   MPKI: 0
PSCL4 LOAD TRANSLATION ACCESS:         20  HIT:         20  MISS:          0  HIT %:        100  MISS %:          0   MPKI: 0
PSCL4 TRANSLATION FROM L1D PREFETCHER ACCESS:      20711  HIT:      20711  MISS:          0  HIT %:        100  MISS %:          0   MPKI: 0
PSCL4 PREFETCH  REQUESTED:          0  ISSUED:          0  USEFUL:          0  USELESS:          0
PSCL4 USEFUL LOAD PREFETCHES:          0 PREFETCH ISSUED TO LOWER LEVEL:          0  ACCURACY: -nan
PSCL4 TIMELY PREFETCHES:          0 LATE PREFETCHES: 0 DROPPED PREFETCHES: 0
PSCL4 PREFETCHES SAME FILL-ORIGIN LEVEL: 0 DIFFERENT FILL-ORIGIN LEVEL: 0

PSCL3 TOTAL     ACCESS:      20731  HIT:      20731  MISS:          0  HIT %:        100  MISS %:          0   MPKI: 0
PSCL3 LOAD TRANSLATION ACCESS:         20  HIT:         20  MISS:          0  HIT %:        100  MISS %:          0   MPKI: 0
PSCL3 TRANSLATION FROM L1D PREFETCHER ACCESS:      20711  HIT:      20711  MISS:          0  HIT %:        100  MISS %:          0   MPKI: 0
PSCL3 PREFETCH  REQUESTED:          0  ISSUED:          0  USEFUL:          0  USELESS:          0
PSCL3 USEFUL LOAD PREFETCHES:          0 PREFETCH ISSUED TO LOWER LEVEL:          0  ACCURACY: -nan
PSCL3 TIMELY PREFETCHES:          0 LATE PREFETCHES: 0 DROPPED PREFETCHES: 0
PSCL3 PREFETCHES SAME FILL-ORIGIN LEVEL: 0 DIFFERENT FILL-ORIGIN LEVEL: 0

PSCL2 TOTAL     ACCESS:      20731  HIT:      20731  MISS:          0  HIT %:        100  MISS %:          0   MPKI: 0
PSCL2 LOAD TRANSLATION ACCESS:         20  HIT:         20  MISS:          0  HIT %:        100  MISS %:          0   MPKI: 0
PSCL2 TRANSLATION FROM L1D PREFETCHER ACCESS:      20711  HIT:      20711  MISS:          0  HIT %:        100  MISS %:          0   MPKI: 0
PSCL2 PREFETCH  REQUESTED:          0  ISSUED:          0  USEFUL:          0  USELESS:          0
PSCL2 USEFUL LOAD PREFETCHES:          0 PREFETCH ISSUED TO LOWER LEVEL:          0  ACCURACY: -nan
PSCL2 TIMELY PREFETCHES:          0 LATE PREFETCHES: 0 DROPPED PREFETCHES: 0
PSCL2 PREFETCHES SAME FILL-ORIGIN LEVEL: 0 DIFFERENT FILL-ORIGIN LEVEL: 0

LLC TOTAL     ACCESS:    1864669  HIT:     535559  MISS:    1329110  HIT %:    28.7214  MISS %:    71.2786   MPKI: 26.5822
LLC LOAD      ACCESS:      20418  HIT:          0  MISS:      20418  HIT %:          0  MISS %:        100   MPKI: 0.40836
LLC RFO       ACCESS:          8  HIT:          0  MISS:          8  HIT %:          0  MISS %:        100   MPKI: 0.00016
LLC PREFETCH  ACCESS:    1306089  HIT:          0  MISS:    1306089  HIT %:          0  MISS %:        100   MPKI: 26.1218
AGUS PREFETCH L1 MISS: 0
LLC WRITEBACK ACCESS:     535559  HIT:     535559  MISS:          0  HIT %:        100  MISS %:          0   MPKI: 0
LLC LOAD TRANSLATION ACCESS:          4  HIT:          0  MISS:          4  HIT %:          0  MISS %:        100   MPKI: 8e-05
LLC TRANSLATION FROM L1D PREFETCHER ACCESS:       2591  HIT:          0  MISS:       2591  HIT %:          0  MISS %:        100   MPKI: 0.05182
LLC PREFETCH  REQUESTED:          0  ISSUED:          0  USEFUL:          0  USELESS:    1308964
LLC USEFUL LOAD PREFETCHES:          0 PREFETCH ISSUED TO LOWER LEVEL:    1306090  ACCURACY: 0
LLC TIMELY PREFETCHES:          0 LATE PREFETCHES: 0 DROPPED PREFETCHES: 0
LLC PREFETCHES SAME FILL-ORIGIN LEVEL: 0 DIFFERENT FILL-ORIGIN LEVEL: 0
LLC AVERAGE MISS LATENCY: 146.331 cycles
LLC RQ	ACCESS:      23021	FORWARD:          0	MERGED:          0	TO_CACHE:      23021
LLC WQ	ACCESS:     535559	FORWARD:          0	MERGED:          0	TO_CACHE:     535559
LLC PQ	ACCESS:    1306091	FORWARD:          0	MERGED:          0	TO_CACHE:    1306091

LLC Dense regions hint to LLC: 0

RAW hits: 4
Loads Generated: 15917885
Loads sent to L1D: 15917877
Stores Generated: 2108708
Stores sent to L1D: 2108708
Major fault: 0 Minor fault: 8227
Allocated PAGES: 8227

stream: 
stream:times selected: 3221959
stream:pref_reqs: 18241839
stream:pref_reqs_filtered_out: 15727531
stream:pref_filled: 2265985
stream:pref_useful: 2265961
stream:pref_late: 201329
stream:misses: 48
stream:misses_by_poll: 0

CS: 
CS:times selected: 2995857
CS:pref_reqs: 8835670
CS:pref_reqs_filtered_out: 8675405
CS:pref_filled: 4706
CS:pref_useful: 4703
CS:pref_late: 1910
CS:misses: 221213
CS:misses_by_poll: 9

CPLX: 
CPLX:times selected: 226051
CPLX:pref_reqs: 638555
CPLX:pref_reqs_filtered_out: 635341
CPLX:pref_filled: 2446
CPLX:pref_useful: 2446
CPLX:pref_late: 314
CPLX:misses: 23515
CPLX:misses_by_poll: 11

ISB: 
ISB:total access:15442919
ISB:times selected:725849
ISB:canary counter:0
ISB:pref_reqs: 3254031
ISB:pref_reqs_filtered_out: 2846299
ISB:pref_filled: 138745
ISB:pref_useful: 138735
ISB:pref_late: 408
ISB:misses: 155375
ISB:misses_by_poll: 1586
ISB:Stream end: 402292
ISB:No Prediction: 14717070 95.2998
ISB:No translation: 397747975
ISB:Predictions: 189079 1.22437

NL_L1: 
NL:times selected: 2
NL:pref_reqs: 2
NL:pref_reqs_filtered_out: 1
NL:pref_filled: 0
NL:pref_useful: 0
NL:pref_late: 0
NL:misses: 1
NL:misses_by_poll: 0

Coverage: 82.4751
total selections: 7169718
total_filled: 1094040
total_useful: 1094027
total_late: 212272
total_polluted: 1606
total_misses_after_warmup: 385642
conflicts: 31

test: 0
ISB Prefetcher final stats
Prefetcher final stats
Training Unit Size: 8
Addr table size: 213798 213798
Triggers: 15442919
Structural address exists: 725849 4.70021
No Prediction: 14717070 95.2998
Prefetches issued: 189079 1.22437
Stream end: 402292
No translation: 397747975
%Stream divergence: 44742 0.289725
Stream divergence -- new stream: 0
A: 18022088
B: 18022088
C: 3221960
D: 3221960
E: 3221960
F: 18022088
G: 48

DRAM Statistics
 CHANNEL 0
 RQ ROW_BUFFER_HIT:     856792  ROW_BUFFER_MISS:     472319
 DBUS_CONGESTED:       5811
 WQ ROW_BUFFER_HIT:     107370  ROW_BUFFER_MISS:     427422  FULL:          0

 AVG_CONGESTED_CYCLE: 5
 All warmup complete: 2
Channel 0 Bank busy for read cycles: 0
Channel 0 Bank busy for write cycles: 0
Channel 0
Rank 0
0banks busy for read cycles: 6451675
0banks busy for write cycles: 10489
1banks busy for read cycles: 18958105
1banks busy for write cycles: 2011530
2banks busy for read cycles: 8129690
2banks busy for write cycles: 59284
3banks busy for read cycles: 1669525
3banks busy for write cycles: 58470
4banks busy for read cycles: 1103769
4banks busy for write cycles: 58715
5banks busy for read cycles: 704675
5banks busy for write cycles: 58858
6banks busy for read cycles: 949561
6banks busy for write cycles: 77323
7banks busy for read cycles: 1178939
7banks busy for write cycles: 667188
8banks busy for read cycles: 6527851
8banks busy for write cycles: 9813471

CPU 0 Branch Prediction Accuracy: 99.8647% MPKI: 0.2304 Average ROB Occupancy at Mispredict: 51.7668
Branch types
NOT_BRANCH: 41485260 82.9705%
BRANCH_DIRECT_JUMP: 0 0%
BRANCH_INDIRECT: 2 4e-06%
BRANCH_CONDITIONAL: 8514760 17.0295%
BRANCH_DIRECT_CALL: 10 2e-05%
BRANCH_INDIRECT_CALL: 0 0%
BRANCH_RETURN: 10 2e-05%
BRANCH_OTHER: 0 0%

DRAM PAGES: 1048576
Allocated PAGES: 8227
