
*** ChampSim Multicore Out-of-Order Simulator ***

Warmup Instructions: 50000000
Simulation Instructions: 50000000
Number of CPUs: 1
LLC sets: 2048
LLC ways: 16
Off-chip DRAM Size: 4096 MB Channels: 1 Width: 64-bit Data Rate: 6400 MT/s
CPU 0 runs traces/SPEC-CPU2017/482.sphinx3-234B.champsimtrace.xz
.xz
CPU 0 Bimodal branch predictor
BTB has LRU replacement policy
ITLB has LRU replacement policy
DTLB has LRU replacement policy
STLB has LRU replacement policy
L1I has LRU replacement policy
L1D has LRU replacement policy
Ideal ISB Prefetching
L2C has LRU replacement policy
LLC has LRU replacement policy
Heartbeat CPU 0 instructions: 10000000 cycles: 3095226 heartbeat IPC: 3.23078 cumulative IPC: 3.23078 (Simulation time: 0 hr 0 min 37 sec) 
Heartbeat CPU 0 instructions: 20000000 cycles: 6190499 heartbeat IPC: 3.23073 cumulative IPC: 3.23076 (Simulation time: 0 hr 1 min 13 sec) 
Heartbeat CPU 0 instructions: 30000001 cycles: 9283265 heartbeat IPC: 3.23335 cumulative IPC: 3.23162 (Simulation time: 0 hr 1 min 51 sec) 
Heartbeat CPU 0 instructions: 40000000 cycles: 12414066 heartbeat IPC: 3.19407 cumulative IPC: 3.22215 (Simulation time: 0 hr 2 min 20 sec) 
Heartbeat CPU 0 instructions: 50000000 cycles: 15463511 heartbeat IPC: 3.27929 cumulative IPC: 3.23342 (Simulation time: 0 hr 2 min 50 sec) 

Warmup complete CPU 0 instructions: 50000004 cycles: 15463512 (Simulation time: 0 hr 2 min 50 sec) 

Heartbeat CPU 0 instructions: 60000000 cycles: 28313721 heartbeat IPC: 0.778197 cumulative IPC: 0.778197 (Simulation time: 0 hr 3 min 37 sec) 
Heartbeat CPU 0 instructions: 70000000 cycles: 40563799 heartbeat IPC: 0.816321 cumulative IPC: 0.796803 (Simulation time: 0 hr 4 min 29 sec) 
Heartbeat CPU 0 instructions: 80000000 cycles: 52746025 heartbeat IPC: 0.820868 cumulative IPC: 0.804667 (Simulation time: 0 hr 5 min 19 sec) 
Heartbeat CPU 0 instructions: 90000001 cycles: 65129034 heartbeat IPC: 0.807558 cumulative IPC: 0.805388 (Simulation time: 0 hr 6 min 10 sec) 
Heartbeat CPU 0 instructions: 100000000 cycles: 78271091 heartbeat IPC: 0.760916 cumulative IPC: 0.796082 (Simulation time: 0 hr 6 min 59 sec) 
Finished CPU 0 instructions: 50000000 cycles: 62807611 cumulative IPC: 0.796082 (Simulation time: 0 hr 6 min 59 sec) 

ChampSim completed all CPUs

Region of Interest Statistics

CPU 0 cumulative IPC: 0.796082 instructions: 50000000 cycles: 62807611
ITLB TOTAL     ACCESS:    9686763  HIT:    9686763  MISS:          0  HIT %:        100  MISS %:          0   MPKI: 0
ITLB LOAD TRANSLATION ACCESS:    9686763  HIT:    9686763  MISS:          0  HIT %:        100  MISS %:          0   MPKI: 0
ITLB PREFETCH  REQUESTED:          0  ISSUED:          0  USEFUL:          0  USELESS:          0
ITLB USEFUL LOAD PREFETCHES:          0 PREFETCH ISSUED TO LOWER LEVEL:          0  ACCURACY: -nan
ITLB TIMELY PREFETCHES:          0 LATE PREFETCHES: 0 DROPPED PREFETCHES: 0
ITLB PREFETCHES SAME FILL-ORIGIN LEVEL: 0 DIFFERENT FILL-ORIGIN LEVEL: 0
ITLB AVERAGE MISS LATENCY: -nan cycles
ITLB RQ	ACCESS:   10493068	FORWARD:          0	MERGED:     806305	TO_CACHE:    9686763

DTLB TOTAL     ACCESS:    8592914  HIT:    8530944  MISS:      61970  HIT %:    99.2788  MISS %:   0.721176   MPKI: 1.2394
DTLB LOAD TRANSLATION ACCESS:    8592914  HIT:    8530944  MISS:      61970  HIT %:    99.2788  MISS %:   0.721176   MPKI: 1.2394
DTLB PREFETCH  REQUESTED:          0  ISSUED:          0  USEFUL:          0  USELESS:          0
DTLB USEFUL LOAD PREFETCHES:          0 PREFETCH ISSUED TO LOWER LEVEL:          0  ACCURACY: -nan
DTLB TIMELY PREFETCHES:          0 LATE PREFETCHES: 0 DROPPED PREFETCHES: 0
DTLB PREFETCHES SAME FILL-ORIGIN LEVEL: 0 DIFFERENT FILL-ORIGIN LEVEL: 0
DTLB AVERAGE MISS LATENCY: 35.5758 cycles
DTLB RQ	ACCESS:    9474930	FORWARD:          0	MERGED:     871126	TO_CACHE:    8603804

STLB TOTAL     ACCESS:      61970  HIT:      43030  MISS:      18940  HIT %:    69.4368  MISS %:    30.5632   MPKI: 0.3788
STLB LOAD TRANSLATION ACCESS:      61970  HIT:      43030  MISS:      18940  HIT %:    69.4368  MISS %:    30.5632   MPKI: 0.3788
STLB PREFETCH  REQUESTED:          0  ISSUED:          0  USEFUL:          0  USELESS:          0
STLB USEFUL LOAD PREFETCHES:          0 PREFETCH ISSUED TO LOWER LEVEL:          0  ACCURACY: -nan
STLB TIMELY PREFETCHES:          0 LATE PREFETCHES: 0 DROPPED PREFETCHES: 0
STLB PREFETCHES SAME FILL-ORIGIN LEVEL: 0 DIFFERENT FILL-ORIGIN LEVEL: 0
STLB AVERAGE MISS LATENCY: 86.7976 cycles
STLB RQ	ACCESS:      61970	FORWARD:          0	MERGED:          0	TO_CACHE:      61970

STLB Hit, L1D data hit: 0
STLB Hit, L2C data hit: 0
STLB Hit, LLC data hit: 0
STLB Hit, LLC data miss: 0
STLB STLB hints to L2: 0
L1D TOTAL     ACCESS:    8805260  HIT:    8094397  MISS:     710863  HIT %:    91.9268  MISS %:    8.07316   MPKI: 14.2173
L1D LOAD      ACCESS:    8116762  HIT:    7439981  MISS:     676781  HIT %:    91.6619  MISS %:    8.33807   MPKI: 13.5356
L1D RFO       ACCESS:     688498  HIT:     654416  MISS:      34082  HIT %:    95.0498  MISS %:     4.9502   MPKI: 0.68164
L1D PREFETCH  REQUESTED:          0  ISSUED:          0  USEFUL:          0  USELESS:          0
L1D USEFUL LOAD PREFETCHES:          0 PREFETCH ISSUED TO LOWER LEVEL:          0  ACCURACY: -nan
L1D TIMELY PREFETCHES:          0 LATE PREFETCHES: 0 DROPPED PREFETCHES: 0
L1D PREFETCHES SAME FILL-ORIGIN LEVEL: 0 DIFFERENT FILL-ORIGIN LEVEL: 0
L1D AVERAGE MISS LATENCY: 48.0149 cycles
L1D RQ	ACCESS:   12888608	FORWARD:          0	MERGED:    4259654	TO_CACHE:    8618099
L1D WQ	ACCESS:     858601	FORWARD:      10855	MERGED:       1770	TO_CACHE:     856831

L1D UNIQUE REGIONS ACCESSED: 0
L1D REGIONS CONFLICTS: 0
L1D Cross Page Prefetch Requests: 0
L1D Same Page Prefetch Requests: 0
L1D ROI Sum of L1D PQ occupancy: 0
L1D PREFETCHES PUSHED FROM L2C: 0
L1I TOTAL     ACCESS:   10493067  HIT:   10493067  MISS:          0  HIT %:        100  MISS %:          0   MPKI: 0
L1I LOAD      ACCESS:   10493067  HIT:   10493067  MISS:          0  HIT %:        100  MISS %:          0   MPKI: 0
L1I PREFETCH  REQUESTED:          0  ISSUED:          0  USEFUL:          0  USELESS:          0
L1I USEFUL LOAD PREFETCHES:          0 PREFETCH ISSUED TO LOWER LEVEL:          0  ACCURACY: -nan
L1I TIMELY PREFETCHES:          0 LATE PREFETCHES: 0 DROPPED PREFETCHES: 0
L1I PREFETCHES SAME FILL-ORIGIN LEVEL: 0 DIFFERENT FILL-ORIGIN LEVEL: 0
L1I AVERAGE MISS LATENCY: -nan cycles
L1I RQ	ACCESS:   12662888	FORWARD:          0	MERGED:    2169820	TO_CACHE:   10493068

BTB TOTAL     ACCESS:    4309220  HIT:    4298927  MISS:      10293  HIT %:    99.7611  MISS %:    0.23886   MPKI: 0.20586
BTB BRANCH_DIRECT_JUMP	ACCESS:      86243  HIT:      86192  MISS:         51
BTB BRANCH_INDIRECT	ACCESS:          0  HIT:          0  MISS:          0
BTB BRANCH_CONDITIONAL	ACCESS:    4052259  HIT:    4052080  MISS:        179
BTB BRANCH_DIRECT_CALL	ACCESS:      85360  HIT:      85282  MISS:         78
BTB BRANCH_INDIRECT_CALL	ACCESS:          0  HIT:          0  MISS:          0
BTB BRANCH_RETURN	ACCESS:      85358  HIT:      75373  MISS:       9985
BTB BRANCH_OTHER ACCESS:          0  HIT:          0  MISS:          0

L2C TOTAL     ACCESS:    1311341  HIT:     626615  MISS:     684726  HIT %:    47.7843  MISS %:    52.2157   MPKI: 13.6945
L2C LOAD      ACCESS:     676781  HIT:     538162  MISS:     138619  HIT %:    79.5179  MISS %:    20.4821   MPKI: 2.77238
L2C DATA LOAD MPKI: 2.77238
L2C INSTRUCTION LOAD MPKI: 0
L2C RFO       ACCESS:      34080  HIT:       2434  MISS:      31646  HIT %:    7.14202  MISS %:     92.858   MPKI: 0.63292
L2C PREFETCH  ACCESS:     539684  HIT:      29773  MISS:     509911  HIT %:    5.51675  MISS %:    94.4833   MPKI: 10.1982
AGUS PREFETCH L1 MISS: 0
L2C DATA PREFETCH MPKI: 10.1982
L2C INSTRUCTION PREFETCH MPKI: 0
L2C WRITEBACK ACCESS:      41856  HIT:      41728  MISS:        128  HIT %:    99.6942  MISS %:    0.30581   MPKI: 0.00256
L2C LOAD TRANSLATION ACCESS:      18940  HIT:      14518  MISS:       4422  HIT %:    76.6526  MISS %:    23.3474   MPKI: 0.08844
L2C PREFETCH  REQUESTED:     572601  ISSUED:     571315  USEFUL:     436888  USELESS:      73742
L2C USEFUL LOAD PREFETCHES:     436888 PREFETCH ISSUED TO LOWER LEVEL:     514099  ACCURACY: 84.9813
L2C TIMELY PREFETCHES:     436888 LATE PREFETCHES: 4188 DROPPED PREFETCHES: 0
L2C PREFETCHES SAME FILL-ORIGIN LEVEL: 514099 DIFFERENT FILL-ORIGIN LEVEL: 0
L2C AVERAGE MISS LATENCY: 156.904 cycles
L2C RQ	ACCESS:     729803	FORWARD:          0	MERGED:          0	TO_CACHE:     729801
L2C WQ	ACCESS:      41856	FORWARD:          2	MERGED:          0	TO_CACHE:      41856
L2C PQ	ACCESS:     571315	FORWARD:          0	MERGED:       7734	TO_CACHE:     563581

L2C Instructions Evicting Data 0
L2C Translations Evicting Data 4410
L2C Data Evicting Data 675769
L2C Instructions Evicting Instructions 0
L2C Translations Evicting Instructions 0
L2C Data Evicting Instructions 0
L2C Instructions Evicting Translations 0
L2C Translations Evicting Translations 12
L2C Data Evicting Translations 4407
L2C Dense regions hint from L2: 0
PSCL5 TOTAL     ACCESS:      18940  HIT:      18940  MISS:          0  HIT %:        100  MISS %:          0   MPKI: 0
PSCL5 LOAD TRANSLATION ACCESS:      18940  HIT:      18940  MISS:          0  HIT %:        100  MISS %:          0   MPKI: 0
PSCL5 PREFETCH  REQUESTED:          0  ISSUED:          0  USEFUL:          0  USELESS:          0
PSCL5 USEFUL LOAD PREFETCHES:          0 PREFETCH ISSUED TO LOWER LEVEL:          0  ACCURACY: -nan
PSCL5 TIMELY PREFETCHES:          0 LATE PREFETCHES: 0 DROPPED PREFETCHES: 0
PSCL5 PREFETCHES SAME FILL-ORIGIN LEVEL: 0 DIFFERENT FILL-ORIGIN LEVEL: 0

PSCL4 TOTAL     ACCESS:      18940  HIT:      18940  MISS:          0  HIT %:        100  MISS %:          0   MPKI: 0
PSCL4 LOAD TRANSLATION ACCESS:      18940  HIT:      18940  MISS:          0  HIT %:        100  MISS %:          0   MPKI: 0
PSCL4 PREFETCH  REQUESTED:          0  ISSUED:          0  USEFUL:          0  USELESS:          0
PSCL4 USEFUL LOAD PREFETCHES:          0 PREFETCH ISSUED TO LOWER LEVEL:          0  ACCURACY: -nan
PSCL4 TIMELY PREFETCHES:          0 LATE PREFETCHES: 0 DROPPED PREFETCHES: 0
PSCL4 PREFETCHES SAME FILL-ORIGIN LEVEL: 0 DIFFERENT FILL-ORIGIN LEVEL: 0

PSCL3 TOTAL     ACCESS:      18940  HIT:      18940  MISS:          0  HIT %:        100  MISS %:          0   MPKI: 0
PSCL3 LOAD TRANSLATION ACCESS:      18940  HIT:      18940  MISS:          0  HIT %:        100  MISS %:          0   MPKI: 0
PSCL3 PREFETCH  REQUESTED:          0  ISSUED:          0  USEFUL:          0  USELESS:          0
PSCL3 USEFUL LOAD PREFETCHES:          0 PREFETCH ISSUED TO LOWER LEVEL:          0  ACCURACY: -nan
PSCL3 TIMELY PREFETCHES:          0 LATE PREFETCHES: 0 DROPPED PREFETCHES: 0
PSCL3 PREFETCHES SAME FILL-ORIGIN LEVEL: 0 DIFFERENT FILL-ORIGIN LEVEL: 0

PSCL2 TOTAL     ACCESS:      18940  HIT:      18940  MISS:          0  HIT %:        100  MISS %:          0   MPKI: 0
PSCL2 LOAD TRANSLATION ACCESS:      18940  HIT:      18940  MISS:          0  HIT %:        100  MISS %:          0   MPKI: 0
PSCL2 PREFETCH  REQUESTED:          0  ISSUED:          0  USEFUL:          0  USELESS:          0
PSCL2 USEFUL LOAD PREFETCHES:          0 PREFETCH ISSUED TO LOWER LEVEL:          0  ACCURACY: -nan
PSCL2 TIMELY PREFETCHES:          0 LATE PREFETCHES: 0 DROPPED PREFETCHES: 0
PSCL2 PREFETCHES SAME FILL-ORIGIN LEVEL: 0 DIFFERENT FILL-ORIGIN LEVEL: 0

LLC TOTAL     ACCESS:     722878  HIT:      73514  MISS:     649364  HIT %:    10.1696  MISS %:    89.8304   MPKI: 12.9873
LLC LOAD      ACCESS:     134431  HIT:      15581  MISS:     118850  HIT %:    11.5903  MISS %:    88.4097   MPKI: 2.377
LLC RFO       ACCESS:      31646  HIT:       5054  MISS:      26592  HIT %:    15.9704  MISS %:    84.0296   MPKI: 0.53184
LLC PREFETCH  ACCESS:     514099  HIT:      15097  MISS:     499002  HIT %:    2.93659  MISS %:    97.0634   MPKI: 9.98004
AGUS PREFETCH L1 MISS: 0
LLC WRITEBACK ACCESS:      38280  HIT:      37640  MISS:        640  HIT %:    98.3281  MISS %:    1.67189   MPKI: 0.0128
LLC LOAD TRANSLATION ACCESS:       4422  HIT:        142  MISS:       4280  HIT %:    3.21122  MISS %:    96.7888   MPKI: 0.0856
LLC PREFETCH  REQUESTED:          0  ISSUED:          0  USEFUL:       4446  USELESS:     496003
LLC USEFUL LOAD PREFETCHES:       4446 PREFETCH ISSUED TO LOWER LEVEL:     499002  ACCURACY: 0.890978
LLC TIMELY PREFETCHES:       4446 LATE PREFETCHES: 0 DROPPED PREFETCHES: 0
LLC PREFETCHES SAME FILL-ORIGIN LEVEL: 0 DIFFERENT FILL-ORIGIN LEVEL: 0
LLC AVERAGE MISS LATENCY: 133.82 cycles
LLC RQ	ACCESS:     170499	FORWARD:          0	MERGED:          0	TO_CACHE:     170499
LLC WQ	ACCESS:      38280	FORWARD:          0	MERGED:          0	TO_CACHE:      38280
LLC PQ	ACCESS:     514099	FORWARD:          0	MERGED:          0	TO_CACHE:     514099

LLC Dense regions hint to LLC: 0

RAW hits: 57134
Loads Generated: 12945742
Loads sent to L1D: 12888608
Stores Generated: 858600
Stores sent to L1D: 858601
Major fault: 0 Minor fault: 4120
Allocated PAGES: 4120
Prefetcher final stats
Coverage: 75.9136
Training Unit Size: 338
Addr table size: 138638 138645


Triggers: 354572
No Prediction: 160680 45.3166
Stream end: 76248
No translation: 76902883 21688.9
Predictions: 1010097 284.878


Stream divergence: 74778 21.0897
Stream divergence -- new stream: 0

DRAM Statistics
 CHANNEL 0
 RQ ROW_BUFFER_HIT:     434607  ROW_BUFFER_MISS:     214116
 DBUS_CONGESTED:         94
 WQ ROW_BUFFER_HIT:       4823  ROW_BUFFER_MISS:      30480  FULL:          0

 AVG_CONGESTED_CYCLE: 4
 All warmup complete: 2
Channel 0 Bank busy for read cycles: 0
Channel 0 Bank busy for write cycles: 0
Channel 0
Rank 0
0banks busy for read cycles: 42601561
0banks busy for write cycles: 14818
1banks busy for read cycles: 7484155
1banks busy for write cycles: 1671506
2banks busy for read cycles: 2555131
2banks busy for write cycles: 595761
3banks busy for read cycles: 1329119
3banks busy for write cycles: 303815
4banks busy for read cycles: 781482
4banks busy for write cycles: 173476
5banks busy for read cycles: 706819
5banks busy for write cycles: 112169
6banks busy for read cycles: 1170578
6banks busy for write cycles: 71877
7banks busy for read cycles: 1798321
7banks busy for write cycles: 37496
8banks busy for read cycles: 1374590
8banks busy for write cycles: 24938

CPU 0 Branch Prediction Accuracy: 95.9006% MPKI: 3.75384 Average ROB Occupancy at Mispredict: 76.4575
Branch types
NOT_BRANCH: 45421465 90.8429%
BRANCH_DIRECT_JUMP: 86243 0.172486%
BRANCH_INDIRECT: 0 0%
BRANCH_CONDITIONAL: 4321571 8.64314%
BRANCH_DIRECT_CALL: 85360 0.17072%
BRANCH_INDIRECT_CALL: 0 0%
BRANCH_RETURN: 85358 0.170716%
BRANCH_OTHER: 0 0%

DRAM PAGES: 1048576
Allocated PAGES: 4120
