
*** ChampSim Multicore Out-of-Order Simulator ***

Warmup Instructions: 50000000
Simulation Instructions: 50000000
Number of CPUs: 1
LLC sets: 2048
LLC ways: 16
Off-chip DRAM Size: 4096 MB Channels: 1 Width: 64-bit Data Rate: 6400 MT/s
CPU 0 runs traces/SPEC-CPU2017/482.sphinx3-234B.champsimtrace.xz
.xz
CPU 0 Bimodal branch predictor
BTB has LRU replacement policy
ITLB has LRU replacement policy
DTLB has LRU replacement policy
STLB has LRU replacement policy
L1I has LRU replacement policy
L1D has LRU replacement policy
L2C has LRU replacement policy
LLC has LRU replacement policy
Heartbeat CPU 0 instructions: 10000000 cycles: 3092714 heartbeat IPC: 3.23341 cumulative IPC: 3.23341 (Simulation time: 0 hr 5 min 32 sec) 
Heartbeat CPU 0 instructions: 20000000 cycles: 6187877 heartbeat IPC: 3.23085 cumulative IPC: 3.23213 (Simulation time: 0 hr 11 min 25 sec) 
Heartbeat CPU 0 instructions: 30000001 cycles: 9279994 heartbeat IPC: 3.23403 cumulative IPC: 3.23276 (Simulation time: 0 hr 16 min 59 sec) 
Heartbeat CPU 0 instructions: 40000000 cycles: 12409333 heartbeat IPC: 3.19556 cumulative IPC: 3.22338 (Simulation time: 0 hr 23 min 19 sec) 
Heartbeat CPU 0 instructions: 50000000 cycles: 15456096 heartbeat IPC: 3.28217 cumulative IPC: 3.23497 (Simulation time: 0 hr 29 min 13 sec) 

Warmup complete CPU 0 instructions: 50000004 cycles: 15456097 (Simulation time: 0 hr 29 min 13 sec) 

Heartbeat CPU 0 instructions: 60000000 cycles: 27666048 heartbeat IPC: 0.819004 cumulative IPC: 0.819004 (Simulation time: 0 hr 31 min 40 sec) 
Heartbeat CPU 0 instructions: 70000001 cycles: 38906213 heartbeat IPC: 0.889667 cumulative IPC: 0.852874 (Simulation time: 0 hr 33 min 49 sec) 
Heartbeat CPU 0 instructions: 80000000 cycles: 49923538 heartbeat IPC: 0.907661 cumulative IPC: 0.870387 (Simulation time: 0 hr 35 min 53 sec) 
Heartbeat CPU 0 instructions: 90000000 cycles: 61202534 heartbeat IPC: 0.886604 cumulative IPC: 0.874385 (Simulation time: 0 hr 38 min 5 sec) 
Heartbeat CPU 0 instructions: 100000000 cycles: 73259819 heartbeat IPC: 0.829374 cumulative IPC: 0.864996 (Simulation time: 0 hr 40 min 18 sec) 
Finished CPU 0 instructions: 50000000 cycles: 57803739 cumulative IPC: 0.864996 (Simulation time: 0 hr 40 min 18 sec) 

ChampSim completed all CPUs

Region of Interest Statistics

CPU 0 cumulative IPC: 0.864996 instructions: 50000000 cycles: 57803739
ITLB TOTAL     ACCESS:    9672220  HIT:    9672220  MISS:          0  HIT %:        100  MISS %:          0   MPKI: 0
ITLB LOAD TRANSLATION ACCESS:    9672220  HIT:    9672220  MISS:          0  HIT %:        100  MISS %:          0   MPKI: 0
ITLB PREFETCH  REQUESTED:          0  ISSUED:          0  USEFUL:          0  USELESS:          0
ITLB USEFUL LOAD PREFETCHES:          0 PREFETCH ISSUED TO LOWER LEVEL:          0  ACCURACY: -nan
ITLB TIMELY PREFETCHES:          0 LATE PREFETCHES: 0 DROPPED PREFETCHES: 0
ITLB PREFETCHES SAME FILL-ORIGIN LEVEL: 0 DIFFERENT FILL-ORIGIN LEVEL: 0
ITLB AVERAGE MISS LATENCY: -nan cycles
ITLB RQ	ACCESS:   10474384	FORWARD:          0	MERGED:     802164	TO_CACHE:    9672220

DTLB TOTAL     ACCESS:    9252806  HIT:    9190971  MISS:      61835  HIT %:    99.3317  MISS %:   0.668284   MPKI: 1.2367
DTLB LOAD TRANSLATION ACCESS:    9252806  HIT:    9190971  MISS:      61835  HIT %:    99.3317  MISS %:   0.668284   MPKI: 1.2367
DTLB PREFETCH  REQUESTED:          0  ISSUED:          0  USEFUL:          0  USELESS:          0
DTLB USEFUL LOAD PREFETCHES:          0 PREFETCH ISSUED TO LOWER LEVEL:          0  ACCURACY: -nan
DTLB TIMELY PREFETCHES:          0 LATE PREFETCHES: 0 DROPPED PREFETCHES: 0
DTLB PREFETCHES SAME FILL-ORIGIN LEVEL: 0 DIFFERENT FILL-ORIGIN LEVEL: 0
DTLB AVERAGE MISS LATENCY: 15.1543 cycles
DTLB RQ	ACCESS:   10263424	FORWARD:          0	MERGED:    1000111	TO_CACHE:    9263313

STLB TOTAL     ACCESS:    1076235  HIT:    1051550  MISS:      24685  HIT %:    97.7064  MISS %:    2.29364   MPKI: 0.4937
STLB LOAD TRANSLATION ACCESS:      61835  HIT:      58108  MISS:       3727  HIT %:    93.9727  MISS %:    6.02733   MPKI: 0.07454
STLB TRANSLATION FROM L1D PREFETCHER ACCESS:    1014400  HIT:     993442  MISS:      20958  HIT %:     97.934  MISS %:    2.06605   MPKI: 0.41916
STLB PREFETCH  REQUESTED:          0  ISSUED:          0  USEFUL:      18933  USELESS:       2007
STLB USEFUL LOAD PREFETCHES:      18933 PREFETCH ISSUED TO LOWER LEVEL:          0  ACCURACY: inf
STLB TIMELY PREFETCHES:      18933 LATE PREFETCHES: 4 DROPPED PREFETCHES: 0
STLB PREFETCHES SAME FILL-ORIGIN LEVEL: 0 DIFFERENT FILL-ORIGIN LEVEL: 0
STLB AVERAGE MISS LATENCY: 98.5484 cycles
STLB RQ	ACCESS:    1804967	FORWARD:          0	MERGED:     728630	TO_CACHE:    1076337

STLB Hit, L1D data hit: 0
STLB Hit, L2C data hit: 0
STLB Hit, LLC data hit: 0
STLB Hit, LLC data miss: 0
STLB STLB hints to L2: 0
L1D TOTAL     ACCESS:   11751571  HIT:   10775614  MISS:     975957  HIT %:    91.6951  MISS %:    8.30491   MPKI: 19.5191
L1D LOAD      ACCESS:    9341568  HIT:    9192981  MISS:     148587  HIT %:    98.4094  MISS %:     1.5906   MPKI: 2.97174
L1D RFO       ACCESS:     686390  HIT:     652520  MISS:      33870  HIT %:    95.0655  MISS %:    4.93451   MPKI: 0.6774
L1D PREFETCH  ACCESS:    1723613  HIT:     930113  MISS:     793500  HIT %:     53.963  MISS %:     46.037   MPKI: 15.87
AGUS PREFETCH L1 MISS: 0
L1D PREFETCH  REQUESTED:    4005138  ISSUED:    3486583  USEFUL:     541963  USELESS:     251585
L1D USEFUL LOAD PREFETCHES:     541963 PREFETCH ISSUED TO LOWER LEVEL:     802513  ACCURACY: 67.5332
L1D TIMELY PREFETCHES:     541963 LATE PREFETCHES: 9000 DROPPED PREFETCHES: 0
L1D PREFETCHES SAME FILL-ORIGIN LEVEL: 802513 DIFFERENT FILL-ORIGIN LEVEL: 0
L1D AVERAGE MISS LATENCY: 136.613 cycles
L1D RQ	ACCESS:   12889381	FORWARD:          0	MERGED:    3471903	TO_CACHE:    9406574
L1D WQ	ACCESS:     858601	FORWARD:      10906	MERGED:       1751	TO_CACHE:     856850
L1D PQ	ACCESS:    1743451	FORWARD:          0	MERGED:        317	TO_CACHE:    1743132

L1D UNIQUE REGIONS ACCESSED: 0
L1D REGIONS CONFLICTS: 0
L1D Cross Page Prefetch Requests: 853246
L1D Same Page Prefetch Requests: 2732213
L1D ROI Sum of L1D PQ occupancy: 30020576
L1D PREFETCHES PUSHED FROM L2C: 0
L1I TOTAL     ACCESS:   10474382  HIT:   10474382  MISS:          0  HIT %:        100  MISS %:          0   MPKI: 0
L1I LOAD      ACCESS:   10474382  HIT:   10474382  MISS:          0  HIT %:        100  MISS %:          0   MPKI: 0
L1I PREFETCH  REQUESTED:          0  ISSUED:          0  USEFUL:          0  USELESS:          0
L1I USEFUL LOAD PREFETCHES:          0 PREFETCH ISSUED TO LOWER LEVEL:          0  ACCURACY: -nan
L1I TIMELY PREFETCHES:          0 LATE PREFETCHES: 0 DROPPED PREFETCHES: 0
L1I PREFETCHES SAME FILL-ORIGIN LEVEL: 0 DIFFERENT FILL-ORIGIN LEVEL: 0
L1I AVERAGE MISS LATENCY: -nan cycles
L1I RQ	ACCESS:   12627890	FORWARD:          0	MERGED:    2153506	TO_CACHE:   10474384

BTB TOTAL     ACCESS:    4309219  HIT:    4298926  MISS:      10293  HIT %:    99.7611  MISS %:    0.23886   MPKI: 0.20586
BTB BRANCH_DIRECT_JUMP	ACCESS:      86243  HIT:      86192  MISS:         51
BTB BRANCH_INDIRECT	ACCESS:          0  HIT:          0  MISS:          0
BTB BRANCH_CONDITIONAL	ACCESS:    4052258  HIT:    4052079  MISS:        179
BTB BRANCH_DIRECT_CALL	ACCESS:      85360  HIT:      85282  MISS:         78
BTB BRANCH_INDIRECT_CALL	ACCESS:          0  HIT:          0  MISS:          0
BTB BRANCH_RETURN	ACCESS:      85358  HIT:      75373  MISS:       9985
BTB BRANCH_OTHER ACCESS:          0  HIT:          0  MISS:          0

L2C TOTAL     ACCESS:    1043141  HIT:     330374  MISS:     712767  HIT %:    31.6711  MISS %:    68.3289   MPKI: 14.2553
L2C LOAD      ACCESS:     139587  HIT:      91043  MISS:      48544  HIT %:    65.2231  MISS %:    34.7769   MPKI: 0.97088
L2C DATA LOAD MPKI: 0.97088
L2C INSTRUCTION LOAD MPKI: 0
L2C RFO       ACCESS:      33860  HIT:       2750  MISS:      31110  HIT %:    8.12168  MISS %:    91.8783   MPKI: 0.6222
L2C PREFETCH  ACCESS:     802510  HIT:     174604  MISS:     627906  HIT %:    21.7572  MISS %:    78.2428   MPKI: 12.5581
AGUS PREFETCH L1 MISS: 0
L2C DATA PREFETCH MPKI: 12.5581
L2C INSTRUCTION PREFETCH MPKI: 0
L2C WRITEBACK ACCESS:      42499  HIT:      42364  MISS:        135  HIT %:    99.6823  MISS %:   0.317655   MPKI: 0.0027
L2C LOAD TRANSLATION ACCESS:       3723  HIT:       2671  MISS:       1052  HIT %:    71.7432  MISS %:    28.2568   MPKI: 0.02104
L2C TRANSLATION FROM L1D PREFETCHER ACCESS:      20962  HIT:      16942  MISS:       4020  HIT %:    80.8224  MISS %:    19.1776   MPKI: 0.0804
L2C PREFETCH  REQUESTED:          0  ISSUED:          0  USEFUL:      16315  USELESS:     615596
L2C USEFUL LOAD PREFETCHES:      16315 PREFETCH ISSUED TO LOWER LEVEL:     627909  ACCURACY: 2.59831
L2C TIMELY PREFETCHES:      16315 LATE PREFETCHES: 0 DROPPED PREFETCHES: 0
L2C PREFETCHES SAME FILL-ORIGIN LEVEL: 0 DIFFERENT FILL-ORIGIN LEVEL: 0
L2C AVERAGE MISS LATENCY: 167.773 cycles
L2C RQ	ACCESS:     198132	FORWARD:          0	MERGED:          0	TO_CACHE:     198132
L2C WQ	ACCESS:      42499	FORWARD:          0	MERGED:          0	TO_CACHE:      42499
L2C PQ	ACCESS:     802513	FORWARD:          0	MERGED:          0	TO_CACHE:     802513

L2C Instructions Evicting Data 0
L2C Translations Evicting Data 5049
L2C Data Evicting Data 702499
L2C Instructions Evicting Instructions 0
L2C Translations Evicting Instructions 0
L2C Data Evicting Instructions 0
L2C Instructions Evicting Translations 0
L2C Translations Evicting Translations 23
L2C Data Evicting Translations 5061
L2C Dense regions hint from L2: 0
PSCL5 TOTAL     ACCESS:      24685  HIT:      24685  MISS:          0  HIT %:        100  MISS %:          0   MPKI: 0
PSCL5 LOAD TRANSLATION ACCESS:       3723  HIT:       3723  MISS:          0  HIT %:        100  MISS %:          0   MPKI: 0
PSCL5 TRANSLATION FROM L1D PREFETCHER ACCESS:      20962  HIT:      20962  MISS:          0  HIT %:        100  MISS %:          0   MPKI: 0
PSCL5 PREFETCH  REQUESTED:          0  ISSUED:          0  USEFUL:          0  USELESS:          0
PSCL5 USEFUL LOAD PREFETCHES:          0 PREFETCH ISSUED TO LOWER LEVEL:          0  ACCURACY: -nan
PSCL5 TIMELY PREFETCHES:          0 LATE PREFETCHES: 0 DROPPED PREFETCHES: 0
PSCL5 PREFETCHES SAME FILL-ORIGIN LEVEL: 0 DIFFERENT FILL-ORIGIN LEVEL: 0

PSCL4 TOTAL     ACCESS:      24685  HIT:      24685  MISS:          0  HIT %:        100  MISS %:          0   MPKI: 0
PSCL4 LOAD TRANSLATION ACCESS:       3723  HIT:       3723  MISS:          0  HIT %:        100  MISS %:          0   MPKI: 0
PSCL4 TRANSLATION FROM L1D PREFETCHER ACCESS:      20962  HIT:      20962  MISS:          0  HIT %:        100  MISS %:          0   MPKI: 0
PSCL4 PREFETCH  REQUESTED:          0  ISSUED:          0  USEFUL:          0  USELESS:          0
PSCL4 USEFUL LOAD PREFETCHES:          0 PREFETCH ISSUED TO LOWER LEVEL:          0  ACCURACY: -nan
PSCL4 TIMELY PREFETCHES:          0 LATE PREFETCHES: 0 DROPPED PREFETCHES: 0
PSCL4 PREFETCHES SAME FILL-ORIGIN LEVEL: 0 DIFFERENT FILL-ORIGIN LEVEL: 0

PSCL3 TOTAL     ACCESS:      24685  HIT:      24685  MISS:          0  HIT %:        100  MISS %:          0   MPKI: 0
PSCL3 LOAD TRANSLATION ACCESS:       3723  HIT:       3723  MISS:          0  HIT %:        100  MISS %:          0   MPKI: 0
PSCL3 TRANSLATION FROM L1D PREFETCHER ACCESS:      20962  HIT:      20962  MISS:          0  HIT %:        100  MISS %:          0   MPKI: 0
PSCL3 PREFETCH  REQUESTED:          0  ISSUED:          0  USEFUL:          0  USELESS:          0
PSCL3 USEFUL LOAD PREFETCHES:          0 PREFETCH ISSUED TO LOWER LEVEL:          0  ACCURACY: -nan
PSCL3 TIMELY PREFETCHES:          0 LATE PREFETCHES: 0 DROPPED PREFETCHES: 0
PSCL3 PREFETCHES SAME FILL-ORIGIN LEVEL: 0 DIFFERENT FILL-ORIGIN LEVEL: 0

PSCL2 TOTAL     ACCESS:      24685  HIT:      24685  MISS:          0  HIT %:        100  MISS %:          0   MPKI: 0
PSCL2 LOAD TRANSLATION ACCESS:       3723  HIT:       3723  MISS:          0  HIT %:        100  MISS %:          0   MPKI: 0
PSCL2 TRANSLATION FROM L1D PREFETCHER ACCESS:      20962  HIT:      20962  MISS:          0  HIT %:        100  MISS %:          0   MPKI: 0
PSCL2 PREFETCH  REQUESTED:          0  ISSUED:          0  USEFUL:          0  USELESS:          0
PSCL2 USEFUL LOAD PREFETCHES:          0 PREFETCH ISSUED TO LOWER LEVEL:          0  ACCURACY: -nan
PSCL2 TIMELY PREFETCHES:          0 LATE PREFETCHES: 0 DROPPED PREFETCHES: 0
PSCL2 PREFETCHES SAME FILL-ORIGIN LEVEL: 0 DIFFERENT FILL-ORIGIN LEVEL: 0

LLC TOTAL     ACCESS:     750873  HIT:      72246  MISS:     678627  HIT %:     9.6216  MISS %:    90.3784   MPKI: 13.5725
LLC LOAD      ACCESS:      48544  HIT:      10072  MISS:      38472  HIT %:    20.7482  MISS %:    79.2518   MPKI: 0.76944
LLC RFO       ACCESS:      31110  HIT:       4693  MISS:      26417  HIT %:    15.0852  MISS %:    84.9148   MPKI: 0.52834
LLC PREFETCH  ACCESS:     627905  HIT:      20378  MISS:     607527  HIT %:     3.2454  MISS %:    96.7546   MPKI: 12.1505
AGUS PREFETCH L1 MISS: 0
LLC WRITEBACK ACCESS:      38242  HIT:      36850  MISS:       1392  HIT %:      96.36  MISS %:    3.63998   MPKI: 0.02784
LLC LOAD TRANSLATION ACCESS:       1052  HIT:         76  MISS:        976  HIT %:    7.22433  MISS %:    92.7757   MPKI: 0.01952
LLC TRANSLATION FROM L1D PREFETCHER ACCESS:       4020  HIT:        177  MISS:       3843  HIT %:    4.40299  MISS %:     95.597   MPKI: 0.07686
LLC PREFETCH  REQUESTED:          0  ISSUED:          0  USEFUL:       6091  USELESS:     605857
LLC USEFUL LOAD PREFETCHES:       6091 PREFETCH ISSUED TO LOWER LEVEL:     607529  ACCURACY: 1.00259
LLC TIMELY PREFETCHES:       6091 LATE PREFETCHES: 0 DROPPED PREFETCHES: 0
LLC PREFETCHES SAME FILL-ORIGIN LEVEL: 0 DIFFERENT FILL-ORIGIN LEVEL: 0
LLC AVERAGE MISS LATENCY: 144.709 cycles
LLC RQ	ACCESS:      84726	FORWARD:          0	MERGED:          0	TO_CACHE:      84726
LLC WQ	ACCESS:      38242	FORWARD:          1	MERGED:          0	TO_CACHE:      38242
LLC PQ	ACCESS:     627909	FORWARD:          0	MERGED:          0	TO_CACHE:     627908

LLC Dense regions hint to LLC: 0

RAW hits: 56354
Loads Generated: 12945735
Loads sent to L1D: 12889381
Stores Generated: 858600
Stores sent to L1D: 858601
Major fault: 0 Minor fault: 4120
Allocated PAGES: 4120

stream: 
stream:times selected: 2447070
stream:pref_reqs: 2408397
stream:pref_reqs_filtered_out: 1564302
stream:pref_filled: 291816
stream:pref_useful: 93206
stream:pref_late: 6682
stream:misses: 4759
stream:misses_by_poll: 0

CS: 
CS:times selected: 1493335
CS:pref_reqs: 4412828
CS:pref_reqs_filtered_out: 3164227
CS:pref_filled: 919484
CS:pref_useful: 843796
CS:pref_late: 2569
CS:misses: 30804
CS:misses_by_poll: 1940

CPLX: 
CPLX:times selected: 946253
CPLX:pref_reqs: 465895
CPLX:pref_reqs_filtered_out: 391702
CPLX:pref_filled: 14671
CPLX:pref_useful: 3717
CPLX:pref_late: 45
CPLX:misses: 23750
CPLX:misses_by_poll: 11

ISB: 
ISB:total access:19372848
ISB:times selected:5902431
ISB:canary counter:0
ISB:pref_reqs: 12115491
ISB:pref_reqs_filtered_out: 9574383
ISB:pref_filled: 412533
ISB:pref_useful: 158097
ISB:pref_late: 1085
ISB:misses: 280572
ISB:misses_by_poll: 994
ISB:Stream end: 5092501
ISB:No Prediction: 13470417 69.5325
ISB:No translation: 852727353
ISB:Predictions: 1624726 8.38661

NL_L1: 
NL:times selected: 1693
NL:pref_reqs: 1693
NL:pref_reqs_filtered_out: 573
NL:pref_filled: 420
NL:pref_useful: 56
NL:pref_late: 2
NL:misses: 362
NL:misses_by_poll: 0

Coverage: 78.4828
total selections: 10790782
total_filled: 793500
total_useful: 541963
total_late: 11086
total_polluted: 2945
total_misses_after_warmup: 213593
conflicts: 302285

test: 0
ISB Prefetcher final stats
Prefetcher final stats
Training Unit Size: 500
Addr table size: 43480 43490
Triggers: 19372848
Structural address exists: 5902431 30.4675
No Prediction: 13470417 69.5325
Prefetches issued: 1624726 8.38661
Stream end: 5092501
No translation: 852727353
%Stream divergence: 85854 0.443167
Stream divergence -- new stream: 0
A: 19883295
B: 19883295
C: 2447075
D: 2447075
E: 2447075
F: 19883295
G: 927845

DRAM Statistics
 CHANNEL 0
 RQ ROW_BUFFER_HIT:     382413  ROW_BUFFER_MISS:     294798
 DBUS_CONGESTED:       1244
 WQ ROW_BUFFER_HIT:      16288  ROW_BUFFER_MISS:      20127  FULL:          0

 AVG_CONGESTED_CYCLE: 4
 All warmup complete: 2
Channel 0 Bank busy for read cycles: 0
Channel 0 Bank busy for write cycles: 0
Channel 0
Rank 0
0banks busy for read cycles: 17768541
0banks busy for write cycles: 10338
1banks busy for read cycles: 20880670
1banks busy for write cycles: 1922927
2banks busy for read cycles: 8349226
2banks busy for write cycles: 811353
3banks busy for read cycles: 3404701
3banks busy for write cycles: 450617
4banks busy for read cycles: 1622054
4banks busy for write cycles: 296053
5banks busy for read cycles: 841595
5banks busy for write cycles: 203008
6banks busy for read cycles: 511094
6banks busy for write cycles: 169057
7banks busy for read cycles: 199344
7banks busy for write cycles: 145495
8banks busy for read cycles: 49522
8banks busy for write cycles: 168145

CPU 0 Branch Prediction Accuracy: 95.9006% MPKI: 3.75384 Average ROB Occupancy at Mispredict: 48.7099
Branch types
NOT_BRANCH: 45421448 90.8429%
BRANCH_DIRECT_JUMP: 86243 0.172486%
BRANCH_INDIRECT: 0 0%
BRANCH_CONDITIONAL: 4321570 8.64314%
BRANCH_DIRECT_CALL: 85360 0.17072%
BRANCH_INDIRECT_CALL: 0 0%
BRANCH_RETURN: 85358 0.170716%
BRANCH_OTHER: 0 0%

DRAM PAGES: 1048576
Allocated PAGES: 4120
