
*** ChampSim Multicore Out-of-Order Simulator ***

Warmup Instructions: 50000000
Simulation Instructions: 50000000
Number of CPUs: 1
LLC sets: 2048
LLC ways: 16
Off-chip DRAM Size: 4096 MB Channels: 1 Width: 64-bit Data Rate: 6400 MT/s
CPU 0 runs traces/SPEC-CPU2017/482.sphinx3-234B.champsimtrace.xz
.xz
CPU 0 Bimodal branch predictor
BTB has LRU replacement policy
ITLB has LRU replacement policy
DTLB has LRU replacement policy
STLB has LRU replacement policy
L1I has LRU replacement policy
L1D has LRU replacement policy
L2C has LRU replacement policy
LLC has LRU replacement policy
Heartbeat CPU 0 instructions: 10000000 cycles: 3092978 heartbeat IPC: 3.23313 cumulative IPC: 3.23313 (Simulation time: 0 hr 3 min 26 sec) 
Heartbeat CPU 0 instructions: 20000000 cycles: 6188786 heartbeat IPC: 3.23017 cumulative IPC: 3.23165 (Simulation time: 0 hr 6 min 55 sec) 
Heartbeat CPU 0 instructions: 30000001 cycles: 9281703 heartbeat IPC: 3.23319 cumulative IPC: 3.23217 (Simulation time: 0 hr 10 min 12 sec) 
Heartbeat CPU 0 instructions: 40000000 cycles: 12412280 heartbeat IPC: 3.1943 cumulative IPC: 3.22262 (Simulation time: 0 hr 13 min 27 sec) 
Heartbeat CPU 0 instructions: 50000000 cycles: 15459310 heartbeat IPC: 3.28188 cumulative IPC: 3.2343 (Simulation time: 0 hr 16 min 31 sec) 

Warmup complete CPU 0 instructions: 50000004 cycles: 15459311 (Simulation time: 0 hr 16 min 31 sec) 

Heartbeat CPU 0 instructions: 60000000 cycles: 27925832 heartbeat IPC: 0.802148 cumulative IPC: 0.802148 (Simulation time: 0 hr 17 min 11 sec) 
Heartbeat CPU 0 instructions: 70000001 cycles: 39531214 heartbeat IPC: 0.861669 cumulative IPC: 0.830844 (Simulation time: 0 hr 17 min 50 sec) 
Heartbeat CPU 0 instructions: 80000000 cycles: 50938645 heartbeat IPC: 0.876621 cumulative IPC: 0.845563 (Simulation time: 0 hr 18 min 28 sec) 
Heartbeat CPU 0 instructions: 90000000 cycles: 62611699 heartbeat IPC: 0.856674 cumulative IPC: 0.848313 (Simulation time: 0 hr 19 min 7 sec) 
Heartbeat CPU 0 instructions: 100000000 cycles: 75178327 heartbeat IPC: 0.795758 cumulative IPC: 0.837254 (Simulation time: 0 hr 19 min 47 sec) 
Finished CPU 0 instructions: 50000000 cycles: 59719033 cumulative IPC: 0.837254 (Simulation time: 0 hr 19 min 47 sec) 

ChampSim completed all CPUs

Region of Interest Statistics

CPU 0 cumulative IPC: 0.837254 instructions: 50000000 cycles: 59719033
ITLB TOTAL     ACCESS:    9673441  HIT:    9673441  MISS:          0  HIT %:        100  MISS %:          0   MPKI: 0
ITLB LOAD TRANSLATION ACCESS:    9673441  HIT:    9673441  MISS:          0  HIT %:        100  MISS %:          0   MPKI: 0
ITLB PREFETCH  REQUESTED:          0  ISSUED:          0  USEFUL:          0  USELESS:          0
ITLB USEFUL LOAD PREFETCHES:          0 PREFETCH ISSUED TO LOWER LEVEL:          0  ACCURACY: -nan
ITLB TIMELY PREFETCHES:          0 LATE PREFETCHES: 0 DROPPED PREFETCHES: 0
ITLB PREFETCHES SAME FILL-ORIGIN LEVEL: 0 DIFFERENT FILL-ORIGIN LEVEL: 0
ITLB AVERAGE MISS LATENCY: -nan cycles
ITLB RQ	ACCESS:   10477269	FORWARD:          0	MERGED:     803828	TO_CACHE:    9673441

DTLB TOTAL     ACCESS:    9212288  HIT:    9150482  MISS:      61806  HIT %:    99.3291  MISS %:   0.670908   MPKI: 1.23612
DTLB LOAD TRANSLATION ACCESS:    9212288  HIT:    9150482  MISS:      61806  HIT %:    99.3291  MISS %:   0.670908   MPKI: 1.23612
DTLB PREFETCH  REQUESTED:          0  ISSUED:          0  USEFUL:          0  USELESS:          0
DTLB USEFUL LOAD PREFETCHES:          0 PREFETCH ISSUED TO LOWER LEVEL:          0  ACCURACY: -nan
DTLB TIMELY PREFETCHES:          0 LATE PREFETCHES: 0 DROPPED PREFETCHES: 0
DTLB PREFETCHES SAME FILL-ORIGIN LEVEL: 0 DIFFERENT FILL-ORIGIN LEVEL: 0
DTLB AVERAGE MISS LATENCY: 35.4174 cycles
DTLB RQ	ACCESS:   10222040	FORWARD:          0	MERGED:     998324	TO_CACHE:    9223716

STLB TOTAL     ACCESS:     757214  HIT:     738273  MISS:      18941  HIT %:    97.4986  MISS %:    2.50141   MPKI: 0.37882
STLB LOAD TRANSLATION ACCESS:      61806  HIT:      42865  MISS:      18941  HIT %:    69.3541  MISS %:    30.6459   MPKI: 0.37882
STLB TRANSLATION FROM L1D PREFETCHER ACCESS:     695408  HIT:     695408  MISS:          0  HIT %:        100  MISS %:          0   MPKI: 0
STLB PREFETCH  REQUESTED:          0  ISSUED:          0  USEFUL:          0  USELESS:          0
STLB USEFUL LOAD PREFETCHES:          0 PREFETCH ISSUED TO LOWER LEVEL:          0  ACCURACY: -nan
STLB TIMELY PREFETCHES:          0 LATE PREFETCHES: 0 DROPPED PREFETCHES: 0
STLB PREFETCHES SAME FILL-ORIGIN LEVEL: 0 DIFFERENT FILL-ORIGIN LEVEL: 0
STLB AVERAGE MISS LATENCY: 86.0442 cycles
STLB RQ	ACCESS:    1459531	FORWARD:          0	MERGED:     702317	TO_CACHE:     757214

STLB Hit, L1D data hit: 0
STLB Hit, L2C data hit: 0
STLB Hit, LLC data hit: 0
STLB Hit, LLC data miss: 0
STLB STLB hints to L2: 0
L1D TOTAL     ACCESS:   11382413  HIT:   10346464  MISS:    1035949  HIT %:    90.8987  MISS %:    9.10131   MPKI: 20.719
L1D LOAD      ACCESS:    9308718  HIT:    9149525  MISS:     159193  HIT %:    98.2899  MISS %:    1.71015   MPKI: 3.18386
L1D RFO       ACCESS:     686329  HIT:     652045  MISS:      34284  HIT %:    95.0047  MISS %:    4.99527   MPKI: 0.68568
L1D PREFETCH  ACCESS:    1387366  HIT:     544894  MISS:     842472  HIT %:    39.2754  MISS %:    60.7246   MPKI: 16.8494
AGUS PREFETCH L1 MISS: 0
L1D PREFETCH  REQUESTED:    3030397  ISSUED:    2795451  USEFUL:     533218  USELESS:     309287
L1D USEFUL LOAD PREFETCHES:     533218 PREFETCH ISSUED TO LOWER LEVEL:     846036  ACCURACY: 63.0255
L1D TIMELY PREFETCHES:     533218 LATE PREFETCHES: 3559 DROPPED PREFETCHES: 0
L1D PREFETCHES SAME FILL-ORIGIN LEVEL: 846036 DIFFERENT FILL-ORIGIN LEVEL: 0
L1D AVERAGE MISS LATENCY: 126.623 cycles
L1D RQ	ACCESS:   12889361	FORWARD:          0	MERGED:    3513245	TO_CACHE:    9365153
L1D WQ	ACCESS:     858601	FORWARD:      10964	MERGED:       1714	TO_CACHE:     856887
L1D PQ	ACCESS:    1397726	FORWARD:          0	MERGED:          0	TO_CACHE:    1397725

L1D UNIQUE REGIONS ACCESSED: 0
L1D REGIONS CONFLICTS: 0
L1D Cross Page Prefetch Requests: 0
L1D Same Page Prefetch Requests: 3006010
L1D ROI Sum of L1D PQ occupancy: 18812576
L1D PREFETCHES PUSHED FROM L2C: 0
L1I TOTAL     ACCESS:   10477267  HIT:   10477267  MISS:          0  HIT %:        100  MISS %:          0   MPKI: 0
L1I LOAD      ACCESS:   10477267  HIT:   10477267  MISS:          0  HIT %:        100  MISS %:          0   MPKI: 0
L1I PREFETCH  REQUESTED:          0  ISSUED:          0  USEFUL:          0  USELESS:          0
L1I USEFUL LOAD PREFETCHES:          0 PREFETCH ISSUED TO LOWER LEVEL:          0  ACCURACY: -nan
L1I TIMELY PREFETCHES:          0 LATE PREFETCHES: 0 DROPPED PREFETCHES: 0
L1I PREFETCHES SAME FILL-ORIGIN LEVEL: 0 DIFFERENT FILL-ORIGIN LEVEL: 0
L1I AVERAGE MISS LATENCY: -nan cycles
L1I RQ	ACCESS:   12630828	FORWARD:          0	MERGED:    2153559	TO_CACHE:   10477269

BTB TOTAL     ACCESS:    4309219  HIT:    4298926  MISS:      10293  HIT %:    99.7611  MISS %:    0.23886   MPKI: 0.20586
BTB BRANCH_DIRECT_JUMP	ACCESS:      86243  HIT:      86192  MISS:         51
BTB BRANCH_INDIRECT	ACCESS:          0  HIT:          0  MISS:          0
BTB BRANCH_CONDITIONAL	ACCESS:    4052258  HIT:    4052079  MISS:        179
BTB BRANCH_DIRECT_CALL	ACCESS:      85360  HIT:      85282  MISS:         78
BTB BRANCH_INDIRECT_CALL	ACCESS:          0  HIT:          0  MISS:          0
BTB BRANCH_RETURN	ACCESS:      85358  HIT:      75373  MISS:       9985
BTB BRANCH_OTHER ACCESS:          0  HIT:          0  MISS:          0

L2C TOTAL     ACCESS:    1097627  HIT:     361926  MISS:     735701  HIT %:    32.9735  MISS %:    67.0265   MPKI: 14.714
L2C LOAD      ACCESS:     155633  HIT:      87967  MISS:      67666  HIT %:    56.5221  MISS %:    43.4779   MPKI: 1.35332
L2C DATA LOAD MPKI: 1.35332
L2C INSTRUCTION LOAD MPKI: 0
L2C RFO       ACCESS:      34278  HIT:       2660  MISS:      31618  HIT %:    7.76008  MISS %:    92.2399   MPKI: 0.63236
L2C PREFETCH  ACCESS:     846036  HIT:     214201  MISS:     631835  HIT %:    25.3182  MISS %:    74.6818   MPKI: 12.6367
AGUS PREFETCH L1 MISS: 0
L2C DATA PREFETCH MPKI: 12.6367
L2C INSTRUCTION PREFETCH MPKI: 0
L2C WRITEBACK ACCESS:      42739  HIT:      42621  MISS:        118  HIT %:    99.7239  MISS %:   0.276094   MPKI: 0.00236
L2C LOAD TRANSLATION ACCESS:      18941  HIT:      14477  MISS:       4464  HIT %:    76.4321  MISS %:    23.5679   MPKI: 0.08928
L2C PREFETCH  REQUESTED:          0  ISSUED:          0  USEFUL:       9961  USELESS:     621896
L2C USEFUL LOAD PREFETCHES:       9961 PREFETCH ISSUED TO LOWER LEVEL:     631835  ACCURACY: 1.57652
L2C TIMELY PREFETCHES:       9961 LATE PREFETCHES: 0 DROPPED PREFETCHES: 0
L2C PREFETCHES SAME FILL-ORIGIN LEVEL: 0 DIFFERENT FILL-ORIGIN LEVEL: 0
L2C AVERAGE MISS LATENCY: 157.871 cycles
L2C RQ	ACCESS:     208854	FORWARD:          0	MERGED:          0	TO_CACHE:     208852
L2C WQ	ACCESS:      42739	FORWARD:          2	MERGED:          0	TO_CACHE:      42739
L2C PQ	ACCESS:     846036	FORWARD:          0	MERGED:          0	TO_CACHE:     846036

L2C Instructions Evicting Data 0
L2C Translations Evicting Data 4441
L2C Data Evicting Data 726662
L2C Instructions Evicting Instructions 0
L2C Translations Evicting Instructions 0
L2C Data Evicting Instructions 0
L2C Instructions Evicting Translations 0
L2C Translations Evicting Translations 23
L2C Data Evicting Translations 4457
L2C Dense regions hint from L2: 0
PSCL5 TOTAL     ACCESS:      18941  HIT:      18941  MISS:          0  HIT %:        100  MISS %:          0   MPKI: 0
PSCL5 LOAD TRANSLATION ACCESS:      18941  HIT:      18941  MISS:          0  HIT %:        100  MISS %:          0   MPKI: 0
PSCL5 PREFETCH  REQUESTED:          0  ISSUED:          0  USEFUL:          0  USELESS:          0
PSCL5 USEFUL LOAD PREFETCHES:          0 PREFETCH ISSUED TO LOWER LEVEL:          0  ACCURACY: -nan
PSCL5 TIMELY PREFETCHES:          0 LATE PREFETCHES: 0 DROPPED PREFETCHES: 0
PSCL5 PREFETCHES SAME FILL-ORIGIN LEVEL: 0 DIFFERENT FILL-ORIGIN LEVEL: 0

PSCL4 TOTAL     ACCESS:      18941  HIT:      18941  MISS:          0  HIT %:        100  MISS %:          0   MPKI: 0
PSCL4 LOAD TRANSLATION ACCESS:      18941  HIT:      18941  MISS:          0  HIT %:        100  MISS %:          0   MPKI: 0
PSCL4 PREFETCH  REQUESTED:          0  ISSUED:          0  USEFUL:          0  USELESS:          0
PSCL4 USEFUL LOAD PREFETCHES:          0 PREFETCH ISSUED TO LOWER LEVEL:          0  ACCURACY: -nan
PSCL4 TIMELY PREFETCHES:          0 LATE PREFETCHES: 0 DROPPED PREFETCHES: 0
PSCL4 PREFETCHES SAME FILL-ORIGIN LEVEL: 0 DIFFERENT FILL-ORIGIN LEVEL: 0

PSCL3 TOTAL     ACCESS:      18941  HIT:      18941  MISS:          0  HIT %:        100  MISS %:          0   MPKI: 0
PSCL3 LOAD TRANSLATION ACCESS:      18941  HIT:      18941  MISS:          0  HIT %:        100  MISS %:          0   MPKI: 0
PSCL3 PREFETCH  REQUESTED:          0  ISSUED:          0  USEFUL:          0  USELESS:          0
PSCL3 USEFUL LOAD PREFETCHES:          0 PREFETCH ISSUED TO LOWER LEVEL:          0  ACCURACY: -nan
PSCL3 TIMELY PREFETCHES:          0 LATE PREFETCHES: 0 DROPPED PREFETCHES: 0
PSCL3 PREFETCHES SAME FILL-ORIGIN LEVEL: 0 DIFFERENT FILL-ORIGIN LEVEL: 0

PSCL2 TOTAL     ACCESS:      18941  HIT:      18941  MISS:          0  HIT %:        100  MISS %:          0   MPKI: 0
PSCL2 LOAD TRANSLATION ACCESS:      18941  HIT:      18941  MISS:          0  HIT %:        100  MISS %:          0   MPKI: 0
PSCL2 PREFETCH  REQUESTED:          0  ISSUED:          0  USEFUL:          0  USELESS:          0
PSCL2 USEFUL LOAD PREFETCHES:          0 PREFETCH ISSUED TO LOWER LEVEL:          0  ACCURACY: -nan
PSCL2 TIMELY PREFETCHES:          0 LATE PREFETCHES: 0 DROPPED PREFETCHES: 0
PSCL2 PREFETCHES SAME FILL-ORIGIN LEVEL: 0 DIFFERENT FILL-ORIGIN LEVEL: 0

LLC TOTAL     ACCESS:     773960  HIT:      79031  MISS:     694929  HIT %:    10.2113  MISS %:    89.7887   MPKI: 13.8986
LLC LOAD      ACCESS:      67666  HIT:       9347  MISS:      58319  HIT %:    13.8134  MISS %:    86.1866   MPKI: 1.16638
LLC RFO       ACCESS:      31618  HIT:       4421  MISS:      27197  HIT %:    13.9825  MISS %:    86.0175   MPKI: 0.54394
LLC PREFETCH  ACCESS:     631835  HIT:      28297  MISS:     603538  HIT %:    4.47854  MISS %:    95.5215   MPKI: 12.0708
AGUS PREFETCH L1 MISS: 0
LLC WRITEBACK ACCESS:      38377  HIT:      36791  MISS:       1586  HIT %:    95.8673  MISS %:    4.13268   MPKI: 0.03172
LLC LOAD TRANSLATION ACCESS:       4464  HIT:        175  MISS:       4289  HIT %:    3.92025  MISS %:    96.0797   MPKI: 0.08578
LLC PREFETCH  REQUESTED:          0  ISSUED:          0  USEFUL:       5867  USELESS:     598977
LLC USEFUL LOAD PREFETCHES:       5867 PREFETCH ISSUED TO LOWER LEVEL:     603538  ACCURACY: 0.972101
LLC TIMELY PREFETCHES:       5867 LATE PREFETCHES: 0 DROPPED PREFETCHES: 0
LLC PREFETCHES SAME FILL-ORIGIN LEVEL: 0 DIFFERENT FILL-ORIGIN LEVEL: 0
LLC AVERAGE MISS LATENCY: 135.378 cycles
LLC RQ	ACCESS:     103748	FORWARD:          0	MERGED:          0	TO_CACHE:     103748
LLC WQ	ACCESS:      38377	FORWARD:          0	MERGED:          0	TO_CACHE:      38377
LLC PQ	ACCESS:     631835	FORWARD:          0	MERGED:          0	TO_CACHE:     631835

LLC Dense regions hint to LLC: 0

RAW hits: 56374
Loads Generated: 12945735
Loads sent to L1D: 12889361
Stores Generated: 858600
Stores sent to L1D: 858601
Major fault: 0 Minor fault: 4120
Allocated PAGES: 4120

stream: 
stream:times selected: 2445177
stream:pref_filled: 1698214
stream:pref_useful: 1047897
stream:pref_late: 5348
stream:misses: 54631
stream:misses_by_poll: 0

CS: 
CS:times selected: 1271026
CS:pref_filled: 26136
CS:pref_useful: 21764
CS:pref_late: 205
CS:misses: 73087
CS:misses_by_poll: 64

CPLX: 
CPLX:times selected: 1166554
CPLX:pref_filled: 13887
CPLX:pref_useful: 2531
CPLX:pref_late: 104
CPLX:misses: 206226
CPLX:misses_by_poll: 14

NL_L1: 
NL:times selected: 3372
NL:pref_filled: 1365
NL:pref_useful: 647
NL:pref_late: 21
NL:misses: 2163
NL:misses_by_poll: 0

Coverage: 77.0089
total selections: 4886129
total_filled: 842472
total_useful: 533218
total_late: 6019
total_polluted: 78
total_misses_after_warmup: 215628
conflicts: 302349

test: 577594

DRAM Statistics
 CHANNEL 0
 RQ ROW_BUFFER_HIT:     413775  ROW_BUFFER_MISS:     279551
 DBUS_CONGESTED:       1066
 WQ ROW_BUFFER_HIT:      16343  ROW_BUFFER_MISS:      20431  FULL:          0

 AVG_CONGESTED_CYCLE: 4
 All warmup complete: 2
Channel 0 Bank busy for read cycles: 0
Channel 0 Bank busy for write cycles: 0
Channel 0
Rank 0
0banks busy for read cycles: 21256690
0banks busy for write cycles: 10143
1banks busy for read cycles: 20798024
1banks busy for write cycles: 1743581
2banks busy for read cycles: 7268827
2banks busy for write cycles: 794047
3banks busy for read cycles: 2522974
3banks busy for write cycles: 475008
4banks busy for read cycles: 1288771
4banks busy for write cycles: 336582
5banks busy for read cycles: 1451638
5banks busy for write cycles: 232701
6banks busy for read cycles: 715283
6banks busy for write cycles: 171221
7banks busy for read cycles: 246068
7banks busy for write cycles: 134365
8banks busy for read cycles: 161906
8banks busy for write cycles: 111205

CPU 0 Branch Prediction Accuracy: 95.9006% MPKI: 3.75384 Average ROB Occupancy at Mispredict: 49.65
Branch types
NOT_BRANCH: 45421448 90.8429%
BRANCH_DIRECT_JUMP: 86243 0.172486%
BRANCH_INDIRECT: 0 0%
BRANCH_CONDITIONAL: 4321570 8.64314%
BRANCH_DIRECT_CALL: 85360 0.17072%
BRANCH_INDIRECT_CALL: 0 0%
BRANCH_RETURN: 85358 0.170716%
BRANCH_OTHER: 0 0%

DRAM PAGES: 1048576
Allocated PAGES: 4120
