
*** ChampSim Multicore Out-of-Order Simulator ***

Warmup Instructions: 50000000
Simulation Instructions: 50000000
Number of CPUs: 1
LLC sets: 2048
LLC ways: 16
Off-chip DRAM Size: 4096 MB Channels: 1 Width: 64-bit Data Rate: 6400 MT/s
CPU 0 runs traces/SPEC-CPU2017/602.gcc_s-2226B.champsimtrace.xz
.xz
CPU 0 Bimodal branch predictor
BTB has LRU replacement policy
ITLB has LRU replacement policy
DTLB has LRU replacement policy
STLB has LRU replacement policy
L1I has LRU replacement policy
L1D has LRU replacement policy
L2C has LRU replacement policy
LLC has LRU replacement policy
Heartbeat CPU 0 instructions: 10000001 cycles: 3757860 heartbeat IPC: 2.66109 cumulative IPC: 2.66109 (Simulation time: 0 hr 5 min 12 sec) 
Heartbeat CPU 0 instructions: 20000000 cycles: 7516671 heartbeat IPC: 2.66042 cumulative IPC: 2.66075 (Simulation time: 0 hr 10 min 27 sec) 
Heartbeat CPU 0 instructions: 30000001 cycles: 11270783 heartbeat IPC: 2.66375 cumulative IPC: 2.66175 (Simulation time: 0 hr 15 min 43 sec) 
Heartbeat CPU 0 instructions: 40000000 cycles: 15021177 heartbeat IPC: 2.66639 cumulative IPC: 2.66291 (Simulation time: 0 hr 21 min 2 sec) 
Heartbeat CPU 0 instructions: 50000000 cycles: 18767231 heartbeat IPC: 2.66948 cumulative IPC: 2.66422 (Simulation time: 0 hr 26 min 23 sec) 

Warmup complete CPU 0 instructions: 50000004 cycles: 18767232 (Simulation time: 0 hr 26 min 23 sec) 

Heartbeat CPU 0 instructions: 60000000 cycles: 44877747 heartbeat IPC: 0.382987 cumulative IPC: 0.382987 (Simulation time: 0 hr 27 min 35 sec) 
Heartbeat CPU 0 instructions: 70000000 cycles: 70686479 heartbeat IPC: 0.387466 cumulative IPC: 0.385214 (Simulation time: 0 hr 28 min 47 sec) 
Heartbeat CPU 0 instructions: 80000000 cycles: 96603198 heartbeat IPC: 0.385851 cumulative IPC: 0.385426 (Simulation time: 0 hr 30 min 1 sec) 
Heartbeat CPU 0 instructions: 90000001 cycles: 122563339 heartbeat IPC: 0.385206 cumulative IPC: 0.385371 (Simulation time: 0 hr 31 min 16 sec) 
Heartbeat CPU 0 instructions: 100000000 cycles: 148389385 heartbeat IPC: 0.387206 cumulative IPC: 0.385736 (Simulation time: 0 hr 32 min 32 sec) 
Finished CPU 0 instructions: 50000001 cycles: 129622173 cumulative IPC: 0.385736 (Simulation time: 0 hr 32 min 32 sec) 

ChampSim completed all CPUs

Region of Interest Statistics

CPU 0 cumulative IPC: 0.385736 instructions: 50000001 cycles: 129622173
ITLB TOTAL     ACCESS:   11157559  HIT:   11157559  MISS:          0  HIT %:        100  MISS %:          0   MPKI: 0
ITLB LOAD TRANSLATION ACCESS:   11157559  HIT:   11157559  MISS:          0  HIT %:        100  MISS %:          0   MPKI: 0
ITLB PREFETCH  REQUESTED:          0  ISSUED:          0  USEFUL:          0  USELESS:          0
ITLB USEFUL LOAD PREFETCHES:          0 PREFETCH ISSUED TO LOWER LEVEL:          0  ACCURACY: -nan
ITLB TIMELY PREFETCHES:          0 LATE PREFETCHES: 0 DROPPED PREFETCHES: 0
ITLB PREFETCHES SAME FILL-ORIGIN LEVEL: 0 DIFFERENT FILL-ORIGIN LEVEL: 0
ITLB AVERAGE MISS LATENCY: -nan cycles
ITLB RQ	ACCESS:   11330404	FORWARD:          0	MERGED:     172846	TO_CACHE:   11157558

DTLB TOTAL     ACCESS:    7734504  HIT:    7666016  MISS:      68488  HIT %:    99.1145  MISS %:   0.885487   MPKI: 1.36976
DTLB LOAD TRANSLATION ACCESS:    7734504  HIT:    7666016  MISS:      68488  HIT %:    99.1145  MISS %:   0.885487   MPKI: 1.36976
DTLB PREFETCH  REQUESTED:          0  ISSUED:          0  USEFUL:          0  USELESS:          0
DTLB USEFUL LOAD PREFETCHES:          0 PREFETCH ISSUED TO LOWER LEVEL:          0  ACCURACY: -nan
DTLB TIMELY PREFETCHES:          0 LATE PREFETCHES: 0 DROPPED PREFETCHES: 0
DTLB PREFETCHES SAME FILL-ORIGIN LEVEL: 0 DIFFERENT FILL-ORIGIN LEVEL: 0
DTLB AVERAGE MISS LATENCY: 12.5006 cycles
DTLB RQ	ACCESS:    9099048	FORWARD:          0	MERGED:    1364527	TO_CACHE:    7734521

STLB TOTAL     ACCESS:    3453551  HIT:    3387500  MISS:      66051  HIT %:    98.0874  MISS %:    1.91255   MPKI: 1.32102
STLB LOAD TRANSLATION ACCESS:      68488  HIT:      66635  MISS:       1853  HIT %:    97.2944  MISS %:    2.70558   MPKI: 0.03706
STLB TRANSLATION FROM L1D PREFETCHER ACCESS:    3385063  HIT:    3320865  MISS:      64198  HIT %:    98.1035  MISS %:    1.89651   MPKI: 1.28396
STLB PREFETCH  REQUESTED:          0  ISSUED:          0  USEFUL:      64191  USELESS:          6
STLB USEFUL LOAD PREFETCHES:      64191 PREFETCH ISSUED TO LOWER LEVEL:          0  ACCURACY: inf
STLB TIMELY PREFETCHES:      64191 LATE PREFETCHES: 52 DROPPED PREFETCHES: 0
STLB PREFETCHES SAME FILL-ORIGIN LEVEL: 0 DIFFERENT FILL-ORIGIN LEVEL: 0
STLB AVERAGE MISS LATENCY: 104.117 cycles
STLB RQ	ACCESS:    5545115	FORWARD:          0	MERGED:    2089397	TO_CACHE:    3455718

STLB Hit, L1D data hit: 0
STLB Hit, L2C data hit: 0
STLB Hit, LLC data hit: 0
STLB Hit, LLC data miss: 0
STLB STLB hints to L2: 0
L1D TOTAL     ACCESS:   14351514  HIT:   10490960  MISS:    3860554  HIT %:       73.1  MISS %:       26.9   MPKI: 77.2111
L1D LOAD      ACCESS:    8376757  HIT:    8153569  MISS:     223188  HIT %:    97.3356  MISS %:    2.66437   MPKI: 4.46376
L1D RFO       ACCESS:     654313  HIT:     653739  MISS:        574  HIT %:    99.9123  MISS %:  0.0877256   MPKI: 0.01148
L1D PREFETCH  ACCESS:    5320444  HIT:    1683652  MISS:    3636792  HIT %:     31.645  MISS %:     68.355   MPKI: 72.7358
AGUS PREFETCH L1 MISS: 0
L1D PREFETCH  REQUESTED:   11566204  ISSUED:   10953262  USEFUL:    3301108  USELESS:     335666
L1D USEFUL LOAD PREFETCHES:    3301108 PREFETCH ISSUED TO LOWER LEVEL:    3788000  ACCURACY: 87.1465
L1D TIMELY PREFETCHES:    3301108 LATE PREFETCHES: 150817 DROPPED PREFETCHES: 0
L1D PREFETCHES SAME FILL-ORIGIN LEVEL: 3788000 DIFFERENT FILL-ORIGIN LEVEL: 0
L1D AVERAGE MISS LATENCY: 121.93 cycles
L1D RQ	ACCESS:   17950668	FORWARD:          0	MERGED:    9504425	TO_CACHE:    8444731
L1D WQ	ACCESS:     726205	FORWARD:       1512	MERGED:      71888	TO_CACHE:     654317
L1D PQ	ACCESS:    5476635	FORWARD:          0	MERGED:          8	TO_CACHE:    5476627

L1D UNIQUE REGIONS ACCESSED: 0
L1D REGIONS CONFLICTS: 0
L1D Cross Page Prefetch Requests: 662870
L1D Same Page Prefetch Requests: 9604809
L1D ROI Sum of L1D PQ occupancy: 92658082
L1D PREFETCHES PUSHED FROM L2C: 0
L1I TOTAL     ACCESS:   11330404  HIT:   11330404  MISS:          0  HIT %:        100  MISS %:          0   MPKI: 0
L1I LOAD      ACCESS:   11330404  HIT:   11330404  MISS:          0  HIT %:        100  MISS %:          0   MPKI: 0
L1I PREFETCH  REQUESTED:          0  ISSUED:          0  USEFUL:          0  USELESS:          0
L1I USEFUL LOAD PREFETCHES:          0 PREFETCH ISSUED TO LOWER LEVEL:          0  ACCURACY: -nan
L1I TIMELY PREFETCHES:          0 LATE PREFETCHES: 0 DROPPED PREFETCHES: 0
L1I PREFETCHES SAME FILL-ORIGIN LEVEL: 0 DIFFERENT FILL-ORIGIN LEVEL: 0
L1I AVERAGE MISS LATENCY: -nan cycles
L1I RQ	ACCESS:   16029430	FORWARD:          0	MERGED:    4699026	TO_CACHE:   11330404

BTB TOTAL     ACCESS:   11928195  HIT:   11928097  MISS:         98  HIT %:    99.9992  MISS %: 0.000821583   MPKI: 0.00196
BTB BRANCH_DIRECT_JUMP	ACCESS:     168848  HIT:     168822  MISS:         26
BTB BRANCH_INDIRECT	ACCESS:          0  HIT:          0  MISS:          0
BTB BRANCH_CONDITIONAL	ACCESS:   11592637  HIT:   11592588  MISS:         49
BTB BRANCH_DIRECT_CALL	ACCESS:      83355  HIT:      83345  MISS:         10
BTB BRANCH_INDIRECT_CALL	ACCESS:          0  HIT:          0  MISS:          0
BTB BRANCH_RETURN	ACCESS:      83355  HIT:      83342  MISS:         13
BTB BRANCH_OTHER ACCESS:          0  HIT:          0  MISS:          0

L2C TOTAL     ACCESS:    3934355  HIT:     271638  MISS:    3662717  HIT %:    6.90426  MISS %:    93.0957   MPKI: 73.2543
L2C LOAD      ACCESS:      72348  HIT:      25162  MISS:      47186  HIT %:    34.7791  MISS %:    65.2209   MPKI: 0.94372
L2C DATA LOAD MPKI: 0.94372
L2C INSTRUCTION LOAD MPKI: 0
L2C RFO       ACCESS:        188  HIT:         97  MISS:         91  HIT %:    51.5957  MISS %:    48.4043   MPKI: 0.00182
L2C PREFETCH  ACCESS:    3787995  HIT:     188980  MISS:    3599015  HIT %:    4.98892  MISS %:    95.0111   MPKI: 71.9803
AGUS PREFETCH L1 MISS: 0
L2C DATA PREFETCH MPKI: 71.9803
L2C INSTRUCTION PREFETCH MPKI: 0
L2C WRITEBACK ACCESS:       6239  HIT:       6069  MISS:        170  HIT %:    97.2752  MISS %:     2.7248   MPKI: 0.0034
L2C LOAD TRANSLATION ACCESS:       1922  HIT:        964  MISS:        958  HIT %:    50.1561  MISS %:    49.8439   MPKI: 0.01916
L2C TRANSLATION FROM L1D PREFETCHER ACCESS:      65663  HIT:      50366  MISS:      15297  HIT %:    76.7038  MISS %:    23.2962   MPKI: 0.30594
L2C PREFETCH  REQUESTED:          0  ISSUED:          0  USEFUL:      21561  USELESS:    3592695
L2C USEFUL LOAD PREFETCHES:      21561 PREFETCH ISSUED TO LOWER LEVEL:    3599020  ACCURACY: 0.59908
L2C TIMELY PREFETCHES:      21561 LATE PREFETCHES: 0 DROPPED PREFETCHES: 0
L2C PREFETCHES SAME FILL-ORIGIN LEVEL: 0 DIFFERENT FILL-ORIGIN LEVEL: 0
L2C AVERAGE MISS LATENCY: 113.336 cycles
L2C RQ	ACCESS:     140144	FORWARD:          0	MERGED:          0	TO_CACHE:     140121
L2C WQ	ACCESS:       6239	FORWARD:         23	MERGED:          0	TO_CACHE:       6239
L2C PQ	ACCESS:    3788000	FORWARD:          0	MERGED:          0	TO_CACHE:    3788000

L2C Instructions Evicting Data 0
L2C Translations Evicting Data 16211
L2C Data Evicting Data 3630085
L2C Instructions Evicting Instructions 0
L2C Translations Evicting Instructions 0
L2C Data Evicting Instructions 0
L2C Instructions Evicting Translations 0
L2C Translations Evicting Translations 44
L2C Data Evicting Translations 16207
L2C Dense regions hint from L2: 0
PSCL5 TOTAL     ACCESS:      66051  HIT:      66051  MISS:          0  HIT %:        100  MISS %:          0   MPKI: 0
PSCL5 LOAD TRANSLATION ACCESS:       1801  HIT:       1801  MISS:          0  HIT %:        100  MISS %:          0   MPKI: 0
PSCL5 TRANSLATION FROM L1D PREFETCHER ACCESS:      64250  HIT:      64250  MISS:          0  HIT %:        100  MISS %:          0   MPKI: 0
PSCL5 PREFETCH  REQUESTED:          0  ISSUED:          0  USEFUL:          0  USELESS:          0
PSCL5 USEFUL LOAD PREFETCHES:          0 PREFETCH ISSUED TO LOWER LEVEL:          0  ACCURACY: -nan
PSCL5 TIMELY PREFETCHES:          0 LATE PREFETCHES: 0 DROPPED PREFETCHES: 0
PSCL5 PREFETCHES SAME FILL-ORIGIN LEVEL: 0 DIFFERENT FILL-ORIGIN LEVEL: 0

PSCL4 TOTAL     ACCESS:      66051  HIT:      66051  MISS:          0  HIT %:        100  MISS %:          0   MPKI: 0
PSCL4 LOAD TRANSLATION ACCESS:       1801  HIT:       1801  MISS:          0  HIT %:        100  MISS %:          0   MPKI: 0
PSCL4 TRANSLATION FROM L1D PREFETCHER ACCESS:      64250  HIT:      64250  MISS:          0  HIT %:        100  MISS %:          0   MPKI: 0
PSCL4 PREFETCH  REQUESTED:          0  ISSUED:          0  USEFUL:          0  USELESS:          0
PSCL4 USEFUL LOAD PREFETCHES:          0 PREFETCH ISSUED TO LOWER LEVEL:          0  ACCURACY: -nan
PSCL4 TIMELY PREFETCHES:          0 LATE PREFETCHES: 0 DROPPED PREFETCHES: 0
PSCL4 PREFETCHES SAME FILL-ORIGIN LEVEL: 0 DIFFERENT FILL-ORIGIN LEVEL: 0

PSCL3 TOTAL     ACCESS:      66038  HIT:      66031  MISS:          7  HIT %:    99.9894  MISS %:     0.0106   MPKI: 0.00014
PSCL3 LOAD TRANSLATION ACCESS:       1805  HIT:       1798  MISS:          7  HIT %:    99.6122  MISS %:   0.387812   MPKI: 0.00014
PSCL3 TRANSLATION FROM L1D PREFETCHER ACCESS:      64233  HIT:      64233  MISS:          0  HIT %:        100  MISS %:          0   MPKI: 0
PSCL3 PREFETCH  REQUESTED:          0  ISSUED:          0  USEFUL:          0  USELESS:          0
PSCL3 USEFUL LOAD PREFETCHES:          0 PREFETCH ISSUED TO LOWER LEVEL:          0  ACCURACY: -nan
PSCL3 TIMELY PREFETCHES:          0 LATE PREFETCHES: 0 DROPPED PREFETCHES: 0
PSCL3 PREFETCHES SAME FILL-ORIGIN LEVEL: 0 DIFFERENT FILL-ORIGIN LEVEL: 0

PSCL2 TOTAL     ACCESS:      66051  HIT:      64523  MISS:       1528  HIT %:    97.6866  MISS %:    2.31336   MPKI: 0.03056
PSCL2 LOAD TRANSLATION ACCESS:       3208  HIT:       1680  MISS:       1528  HIT %:    52.3691  MISS %:    47.6309   MPKI: 0.03056
PSCL2 TRANSLATION FROM L1D PREFETCHER ACCESS:      62843  HIT:      62843  MISS:          0  HIT %:        100  MISS %:          0   MPKI: 0
PSCL2 PREFETCH  REQUESTED:          0  ISSUED:          0  USEFUL:          0  USELESS:          0
PSCL2 USEFUL LOAD PREFETCHES:          0 PREFETCH ISSUED TO LOWER LEVEL:          0  ACCURACY: -nan
PSCL2 TIMELY PREFETCHES:          0 LATE PREFETCHES: 0 DROPPED PREFETCHES: 0
PSCL2 PREFETCHES SAME FILL-ORIGIN LEVEL: 0 DIFFERENT FILL-ORIGIN LEVEL: 0

LLC TOTAL     ACCESS:    3668314  HIT:      26891  MISS:    3641423  HIT %:   0.733062  MISS %:    99.2669   MPKI: 72.8285
LLC LOAD      ACCESS:      47186  HIT:       1214  MISS:      45972  HIT %:     2.5728  MISS %:    97.4272   MPKI: 0.91944
LLC RFO       ACCESS:         91  HIT:          0  MISS:         91  HIT %:          0  MISS %:        100   MPKI: 0.00182
LLC PREFETCH  ACCESS:    3599015  HIT:      18573  MISS:    3580442  HIT %:   0.516058  MISS %:    99.4839   MPKI: 71.6088
AGUS PREFETCH L1 MISS: 0
LLC WRITEBACK ACCESS:       5767  HIT:       5668  MISS:         99  HIT %:    98.2833  MISS %:    1.71666   MPKI: 0.00198
LLC LOAD TRANSLATION ACCESS:        958  HIT:        175  MISS:        783  HIT %:    18.2672  MISS %:    81.7328   MPKI: 0.01566
LLC TRANSLATION FROM L1D PREFETCHER ACCESS:      15297  HIT:       1261  MISS:      14036  HIT %:    8.24345  MISS %:    91.7566   MPKI: 0.28072
LLC PREFETCH  REQUESTED:          0  ISSUED:          0  USEFUL:       1369  USELESS:    3592711
LLC USEFUL LOAD PREFETCHES:       1369 PREFETCH ISSUED TO LOWER LEVEL:    3580445  ACCURACY: 0.0382355
LLC TIMELY PREFETCHES:       1369 LATE PREFETCHES: 0 DROPPED PREFETCHES: 0
LLC PREFETCHES SAME FILL-ORIGIN LEVEL: 0 DIFFERENT FILL-ORIGIN LEVEL: 0
LLC AVERAGE MISS LATENCY: 83.8238 cycles
LLC RQ	ACCESS:      63532	FORWARD:          0	MERGED:          0	TO_CACHE:      63532
LLC WQ	ACCESS:       5767	FORWARD:          0	MERGED:          0	TO_CACHE:       5767
LLC PQ	ACCESS:    3599020	FORWARD:          0	MERGED:          0	TO_CACHE:    3599020

LLC Dense regions hint to LLC: 0

RAW hits: 3934
Loads Generated: 17954602
Loads sent to L1D: 17950668
Stores Generated: 726205
Stores sent to L1D: 726205
Major fault: 0 Minor fault: 48887
Allocated PAGES: 48887

stream: 
stream:times selected: 15040337
stream:pref_reqs: 84912573
stream:pref_reqs_filtered_out: 76546780
stream:pref_filled: 6006765
stream:pref_useful: 5599509
stream:pref_late: 145703
stream:misses: 3739
stream:misses_by_poll: 0

CS: 
CS:times selected: 11387969
CS:pref_reqs: 33617558
CS:pref_reqs_filtered_out: 32946734
CS:pref_filled: 44001
CS:pref_useful: 42927
CS:pref_late: 12857
CS:misses: 290203
CS:misses_by_poll: 326

CPLX: 
CPLX:times selected: 3649021
CPLX:pref_reqs: 7287315
CPLX:pref_reqs_filtered_out: 6006016
CPLX:pref_filled: 975068
CPLX:pref_useful: 836990
CPLX:pref_late: 14161
CPLX:misses: 39416
CPLX:misses_by_poll: 10391

ISB: 
ISB:total access:12499857
ISB:times selected:873850
ISB:canary counter:0
ISB:pref_reqs: 2732458
ISB:pref_reqs_filtered_out: 1279416
ISB:pref_filled: 257858
ISB:pref_useful: 198276
ISB:pref_late: 506
ISB:misses: 118353
ISB:misses_by_poll: 686
ISB:Stream end: 592400
ISB:No Prediction: 11626007 93.0091
ISB:No translation: 583408072
ISB:Predictions: 787403 6.2993

NL_L1: 
NL:times selected: 599
NL:pref_reqs: 599
NL:pref_reqs_filtered_out: 472
NL:pref_filled: 63
NL:pref_useful: 59
NL:pref_late: 9
NL:misses: 35
NL:misses_by_poll: 0

Coverage: 93.6672
total selections: 30951776
total_filled: 3636792
total_useful: 3301108
total_late: 176573
total_polluted: 11403
total_misses_after_warmup: 291161
conflicts: 63015

test: 0
ISB Prefetcher final stats
Prefetcher final stats

Training Unit Size: 64
Addr table size: 305598 305605

Triggers: 12499857
Structural address exists: 873850 6.99088
No Prediction: 11626007 93.0091
Prefetches issued: 787403 6.2993
Stream end: 592400
No translation: 583408072
%Stream divergence: 17242 0.137938
Stream divergence -- new stream: 0
A: 20915458
B: 20915458
C: 15040339
D: 15040339
E: 15040339
F: 20915458
G: 431034

DRAM Statistics
 CHANNEL 0
 RQ ROW_BUFFER_HIT:    3289735  ROW_BUFFER_MISS:     351590
 DBUS_CONGESTED:       1575
 WQ ROW_BUFFER_HIT:        800  ROW_BUFFER_MISS:       4895  FULL:          0

 AVG_CONGESTED_CYCLE: 4
 All warmup complete: 2
Channel 0 Bank busy for read cycles: 0
Channel 0 Bank busy for write cycles: 0
Channel 0
Rank 0
0banks busy for read cycles: 31318747
0banks busy for write cycles: 3421
1banks busy for read cycles: 27688978
1banks busy for write cycles: 1286682
2banks busy for read cycles: 38907606
2banks busy for write cycles: 346020
3banks busy for read cycles: 18840721
3banks busy for write cycles: 172461
4banks busy for read cycles: 5161570
4banks busy for write cycles: 64434
5banks busy for read cycles: 2171960
5banks busy for write cycles: 36758
6banks busy for read cycles: 1917610
6banks busy for write cycles: 11275
7banks busy for read cycles: 1329377
7banks busy for write cycles: 2669
8banks busy for read cycles: 361659
8banks busy for write cycles: 226

CPU 0 Branch Prediction Accuracy: 99.1302% MPKI: 3.1024 Average ROB Occupancy at Mispredict: 96.1609
Branch types
NOT_BRANCH: 32166917 64.3338%
BRANCH_DIRECT_JUMP: 168848 0.337696%
BRANCH_INDIRECT: 0 0%
BRANCH_CONDITIONAL: 17497543 34.9951%
BRANCH_DIRECT_CALL: 83355 0.16671%
BRANCH_INDIRECT_CALL: 0 0%
BRANCH_RETURN: 83355 0.16671%
BRANCH_OTHER: 0 0%

DRAM PAGES: 1048576
Allocated PAGES: 48887

