
*** ChampSim Multicore Out-of-Order Simulator ***

Warmup Instructions: 50000000
Simulation Instructions: 50000000
Number of CPUs: 1
LLC sets: 2048
LLC ways: 16
Off-chip DRAM Size: 4096 MB Channels: 1 Width: 64-bit Data Rate: 6400 MT/s
CPU 0 runs traces/SPEC-CPU2017/602.gcc_s-2226B.champsimtrace.xz
.xz
CPU 0 Bimodal branch predictor
BTB has LRU replacement policy
ITLB has LRU replacement policy
DTLB has LRU replacement policy
STLB has LRU replacement policy
L1I has LRU replacement policy
L1D has LRU replacement policy
L2C has LRU replacement policy
LLC has LRU replacement policy
Heartbeat CPU 0 instructions: 10000001 cycles: 3758404 heartbeat IPC: 2.6607 cumulative IPC: 2.6607 (Simulation time: 0 hr 9 min 2 sec) 
Heartbeat CPU 0 instructions: 20000000 cycles: 7517622 heartbeat IPC: 2.66013 cumulative IPC: 2.66042 (Simulation time: 0 hr 18 min 37 sec) 
Heartbeat CPU 0 instructions: 30000001 cycles: 11272051 heartbeat IPC: 2.66352 cumulative IPC: 2.66145 (Simulation time: 0 hr 28 min 33 sec) 
Heartbeat CPU 0 instructions: 40000000 cycles: 15022852 heartbeat IPC: 2.6661 cumulative IPC: 2.66261 (Simulation time: 0 hr 37 min 21 sec) 
Heartbeat CPU 0 instructions: 50000000 cycles: 18769729 heartbeat IPC: 2.66889 cumulative IPC: 2.66386 (Simulation time: 0 hr 43 min 58 sec) 

Warmup complete CPU 0 instructions: 50000004 cycles: 18769730 (Simulation time: 0 hr 43 min 58 sec) 

Heartbeat CPU 0 instructions: 60000000 cycles: 43286603 heartbeat IPC: 0.407882 cumulative IPC: 0.407882 (Simulation time: 0 hr 46 min 8 sec) 
Heartbeat CPU 0 instructions: 70000000 cycles: 67646410 heartbeat IPC: 0.410512 cumulative IPC: 0.409193 (Simulation time: 0 hr 48 min 22 sec) 
Heartbeat CPU 0 instructions: 80000000 cycles: 92107918 heartbeat IPC: 0.408806 cumulative IPC: 0.409064 (Simulation time: 0 hr 50 min 36 sec) 
Heartbeat CPU 0 instructions: 90000001 cycles: 116566233 heartbeat IPC: 0.408859 cumulative IPC: 0.409013 (Simulation time: 0 hr 52 min 49 sec) 
Heartbeat CPU 0 instructions: 100000000 cycles: 140987780 heartbeat IPC: 0.409474 cumulative IPC: 0.409105 (Simulation time: 0 hr 55 min 4 sec) 
Finished CPU 0 instructions: 50000001 cycles: 122218070 cumulative IPC: 0.409105 (Simulation time: 0 hr 55 min 4 sec) 

ChampSim completed all CPUs

Region of Interest Statistics

CPU 0 cumulative IPC: 0.409105 instructions: 50000001 cycles: 122218070
ITLB TOTAL     ACCESS:   11123977  HIT:   11123977  MISS:          0  HIT %:        100  MISS %:          0   MPKI: 0
ITLB LOAD TRANSLATION ACCESS:   11123977  HIT:   11123977  MISS:          0  HIT %:        100  MISS %:          0   MPKI: 0
ITLB PREFETCH  REQUESTED:          0  ISSUED:          0  USEFUL:          0  USELESS:          0
ITLB USEFUL LOAD PREFETCHES:          0 PREFETCH ISSUED TO LOWER LEVEL:          0  ACCURACY: -nan
ITLB TIMELY PREFETCHES:          0 LATE PREFETCHES: 0 DROPPED PREFETCHES: 0
ITLB PREFETCHES SAME FILL-ORIGIN LEVEL: 0 DIFFERENT FILL-ORIGIN LEVEL: 0
ITLB AVERAGE MISS LATENCY: -nan cycles
ITLB RQ	ACCESS:   11296830	FORWARD:          0	MERGED:     172854	TO_CACHE:   11123976

DTLB TOTAL     ACCESS:    7733817  HIT:    7665331  MISS:      68486  HIT %:    99.1145  MISS %:   0.885539   MPKI: 1.36972
DTLB LOAD TRANSLATION ACCESS:    7733817  HIT:    7665331  MISS:      68486  HIT %:    99.1145  MISS %:   0.885539   MPKI: 1.36972
DTLB PREFETCH  REQUESTED:          0  ISSUED:          0  USEFUL:          0  USELESS:          0
DTLB USEFUL LOAD PREFETCHES:          0 PREFETCH ISSUED TO LOWER LEVEL:          0  ACCURACY: -nan
DTLB TIMELY PREFETCHES:          0 LATE PREFETCHES: 0 DROPPED PREFETCHES: 0
DTLB PREFETCHES SAME FILL-ORIGIN LEVEL: 0 DIFFERENT FILL-ORIGIN LEVEL: 0
DTLB AVERAGE MISS LATENCY: 15.188 cycles
DTLB RQ	ACCESS:    9098332	FORWARD:          0	MERGED:    1364483	TO_CACHE:    7733849

STLB TOTAL     ACCESS:    3781665  HIT:    3715618  MISS:      66047  HIT %:    98.2535  MISS %:    1.74651   MPKI: 1.32094
STLB LOAD TRANSLATION ACCESS:      68486  HIT:      62662  MISS:       5824  HIT %:    91.4961  MISS %:    8.50393   MPKI: 0.11648
STLB TRANSLATION FROM L1D PREFETCHER ACCESS:    3713179  HIT:    3652956  MISS:      60223  HIT %:    98.3781  MISS %:    1.62187   MPKI: 1.20446
STLB PREFETCH  REQUESTED:          0  ISSUED:          0  USEFUL:      60217  USELESS:          3
STLB USEFUL LOAD PREFETCHES:      60217 PREFETCH ISSUED TO LOWER LEVEL:          0  ACCURACY: inf
STLB TIMELY PREFETCHES:      60217 LATE PREFETCHES: 2359 DROPPED PREFETCHES: 0
STLB PREFETCHES SAME FILL-ORIGIN LEVEL: 0 DIFFERENT FILL-ORIGIN LEVEL: 0
STLB AVERAGE MISS LATENCY: 82.5757 cycles
STLB RQ	ACCESS:    5510680	FORWARD:          0	MERGED:    1695117	TO_CACHE:    3815563

STLB Hit, L1D data hit: 0
STLB Hit, L2C data hit: 0
STLB Hit, LLC data hit: 0
STLB Hit, LLC data miss: 0
STLB STLB hints to L2: 0
L1D TOTAL     ACCESS:   14425409  HIT:   10587587  MISS:    3837822  HIT %:    73.3954  MISS %:    26.6046   MPKI: 76.7564
L1D LOAD      ACCESS:    8407731  HIT:    8267271  MISS:     140460  HIT %:    98.3294  MISS %:    1.67061   MPKI: 2.8092
L1D RFO       ACCESS:     654314  HIT:     653757  MISS:        557  HIT %:    99.9149  MISS %:  0.0851273   MPKI: 0.01114
L1D PREFETCH  ACCESS:    5363364  HIT:    1666559  MISS:    3696805  HIT %:     31.073  MISS %:     68.927   MPKI: 73.9361
AGUS PREFETCH L1 MISS: 0
L1D PREFETCH  REQUESTED:   11402432  ISSUED:   10884412  USEFUL:    3383033  USELESS:     313786
L1D USEFUL LOAD PREFETCHES:    3383033 PREFETCH ISSUED TO LOWER LEVEL:    3770707  ACCURACY: 89.7188
L1D TIMELY PREFETCHES:    3383033 LATE PREFETCHES: 73530 DROPPED PREFETCHES: 0
L1D PREFETCHES SAME FILL-ORIGIN LEVEL: 3770707 DIFFERENT FILL-ORIGIN LEVEL: 0
L1D AVERAGE MISS LATENCY: 120.982 cycles
L1D RQ	ACCESS:   17950655	FORWARD:          0	MERGED:    9505126	TO_CACHE:    8444014
L1D WQ	ACCESS:     726205	FORWARD:       1515	MERGED:      71887	TO_CACHE:     654318
L1D PQ	ACCESS:    5442218	FORWARD:          0	MERGED:         24	TO_CACHE:    5442194

L1D UNIQUE REGIONS ACCESSED: 0
L1D REGIONS CONFLICTS: 0
L1D Cross Page Prefetch Requests: 1184943
L1D Same Page Prefetch Requests: 9182987
L1D ROI Sum of L1D PQ occupancy: 91167749
L1D PREFETCHES PUSHED FROM L2C: 0
L1I TOTAL     ACCESS:   11296830  HIT:   11296830  MISS:          0  HIT %:        100  MISS %:          0   MPKI: 0
L1I LOAD      ACCESS:   11296830  HIT:   11296830  MISS:          0  HIT %:        100  MISS %:          0   MPKI: 0
L1I PREFETCH  REQUESTED:          0  ISSUED:          0  USEFUL:          0  USELESS:          0
L1I USEFUL LOAD PREFETCHES:          0 PREFETCH ISSUED TO LOWER LEVEL:          0  ACCURACY: -nan
L1I TIMELY PREFETCHES:          0 LATE PREFETCHES: 0 DROPPED PREFETCHES: 0
L1I PREFETCHES SAME FILL-ORIGIN LEVEL: 0 DIFFERENT FILL-ORIGIN LEVEL: 0
L1I AVERAGE MISS LATENCY: -nan cycles
L1I RQ	ACCESS:   15969669	FORWARD:          0	MERGED:    4672839	TO_CACHE:   11296830

BTB TOTAL     ACCESS:   11928195  HIT:   11928097  MISS:         98  HIT %:    99.9992  MISS %: 0.000821583   MPKI: 0.00196
BTB BRANCH_DIRECT_JUMP	ACCESS:     168848  HIT:     168822  MISS:         26
BTB BRANCH_INDIRECT	ACCESS:          0  HIT:          0  MISS:          0
BTB BRANCH_CONDITIONAL	ACCESS:   11592637  HIT:   11592588  MISS:         49
BTB BRANCH_DIRECT_CALL	ACCESS:      83355  HIT:      83345  MISS:         10
BTB BRANCH_INDIRECT_CALL	ACCESS:          0  HIT:          0  MISS:          0
BTB BRANCH_RETURN	ACCESS:      83355  HIT:      83342  MISS:         13
BTB BRANCH_OTHER ACCESS:          0  HIT:          0  MISS:          0

L2C TOTAL     ACCESS:    3911526  HIT:     254898  MISS:    3656628  HIT %:    6.51659  MISS %:    93.4834   MPKI: 73.1326
L2C LOAD      ACCESS:      66904  HIT:      21670  MISS:      45234  HIT %:    32.3897  MISS %:    67.6103   MPKI: 0.90468
L2C DATA LOAD MPKI: 0.90468
L2C INSTRUCTION LOAD MPKI: 0
L2C RFO       ACCESS:        186  HIT:         97  MISS:         89  HIT %:    52.1505  MISS %:    47.8495   MPKI: 0.00178
L2C PREFETCH  ACCESS:    3770706  HIT:     175191  MISS:    3595515  HIT %:    4.64611  MISS %:    95.3539   MPKI: 71.9103
AGUS PREFETCH L1 MISS: 0
L2C DATA PREFETCH MPKI: 71.9103
L2C INSTRUCTION PREFETCH MPKI: 0
L2C WRITEBACK ACCESS:       6162  HIT:       6001  MISS:        161  HIT %:    97.3872  MISS %:    2.61279   MPKI: 0.00322
L2C LOAD TRANSLATION ACCESS:       3666  HIT:       2109  MISS:       1557  HIT %:    57.5286  MISS %:    42.4714   MPKI: 0.03114
L2C TRANSLATION FROM L1D PREFETCHER ACCESS:      63902  HIT:      49830  MISS:      14072  HIT %:    77.9788  MISS %:    22.0212   MPKI: 0.28144
L2C PREFETCH  REQUESTED:          0  ISSUED:          0  USEFUL:      19627  USELESS:    3589890
L2C USEFUL LOAD PREFETCHES:      19627 PREFETCH ISSUED TO LOWER LEVEL:    3595517  ACCURACY: 0.545874
L2C TIMELY PREFETCHES:      19627 LATE PREFETCHES: 0 DROPPED PREFETCHES: 0
L2C PREFETCHES SAME FILL-ORIGIN LEVEL: 0 DIFFERENT FILL-ORIGIN LEVEL: 0
L2C AVERAGE MISS LATENCY: 111.903 cycles
L2C RQ	ACCESS:     134683	FORWARD:          0	MERGED:          0	TO_CACHE:     134658
L2C WQ	ACCESS:       6162	FORWARD:         25	MERGED:          0	TO_CACHE:       6162
L2C PQ	ACCESS:    3770707	FORWARD:          0	MERGED:          0	TO_CACHE:    3770707

L2C Instructions Evicting Data 0
L2C Translations Evicting Data 15586
L2C Data Evicting Data 3625257
L2C Instructions Evicting Instructions 0
L2C Translations Evicting Instructions 0
L2C Data Evicting Instructions 0
L2C Instructions Evicting Translations 0
L2C Translations Evicting Translations 43
L2C Data Evicting Translations 15581
L2C Dense regions hint from L2: 0
PSCL5 TOTAL     ACCESS:      66047  HIT:      66047  MISS:          0  HIT %:        100  MISS %:          0   MPKI: 0
PSCL5 LOAD TRANSLATION ACCESS:       3465  HIT:       3465  MISS:          0  HIT %:        100  MISS %:          0   MPKI: 0
PSCL5 TRANSLATION FROM L1D PREFETCHER ACCESS:      62582  HIT:      62582  MISS:          0  HIT %:        100  MISS %:          0   MPKI: 0
PSCL5 PREFETCH  REQUESTED:          0  ISSUED:          0  USEFUL:          0  USELESS:          0
PSCL5 USEFUL LOAD PREFETCHES:          0 PREFETCH ISSUED TO LOWER LEVEL:          0  ACCURACY: -nan
PSCL5 TIMELY PREFETCHES:          0 LATE PREFETCHES: 0 DROPPED PREFETCHES: 0
PSCL5 PREFETCHES SAME FILL-ORIGIN LEVEL: 0 DIFFERENT FILL-ORIGIN LEVEL: 0

PSCL4 TOTAL     ACCESS:      66047  HIT:      66047  MISS:          0  HIT %:        100  MISS %:          0   MPKI: 0
PSCL4 LOAD TRANSLATION ACCESS:       3465  HIT:       3465  MISS:          0  HIT %:        100  MISS %:          0   MPKI: 0
PSCL4 TRANSLATION FROM L1D PREFETCHER ACCESS:      62582  HIT:      62582  MISS:          0  HIT %:        100  MISS %:          0   MPKI: 0
PSCL4 PREFETCH  REQUESTED:          0  ISSUED:          0  USEFUL:          0  USELESS:          0
PSCL4 USEFUL LOAD PREFETCHES:          0 PREFETCH ISSUED TO LOWER LEVEL:          0  ACCURACY: -nan
PSCL4 TIMELY PREFETCHES:          0 LATE PREFETCHES: 0 DROPPED PREFETCHES: 0
PSCL4 PREFETCHES SAME FILL-ORIGIN LEVEL: 0 DIFFERENT FILL-ORIGIN LEVEL: 0

PSCL3 TOTAL     ACCESS:      66029  HIT:      66022  MISS:          7  HIT %:    99.9894  MISS %:  0.0106014   MPKI: 0.00014
PSCL3 LOAD TRANSLATION ACCESS:       3465  HIT:       3458  MISS:          7  HIT %:     99.798  MISS %:    0.20202   MPKI: 0.00014
PSCL3 TRANSLATION FROM L1D PREFETCHER ACCESS:      62564  HIT:      62564  MISS:          0  HIT %:        100  MISS %:          0   MPKI: 0
PSCL3 PREFETCH  REQUESTED:          0  ISSUED:          0  USEFUL:          0  USELESS:          0
PSCL3 USEFUL LOAD PREFETCHES:          0 PREFETCH ISSUED TO LOWER LEVEL:          0  ACCURACY: -nan
PSCL3 TIMELY PREFETCHES:          0 LATE PREFETCHES: 0 DROPPED PREFETCHES: 0
PSCL3 PREFETCHES SAME FILL-ORIGIN LEVEL: 0 DIFFERENT FILL-ORIGIN LEVEL: 0

PSCL2 TOTAL     ACCESS:      66047  HIT:      64532  MISS:       1515  HIT %:    97.7062  MISS %:    2.29382   MPKI: 0.0303
PSCL2 LOAD TRANSLATION ACCESS:       4780  HIT:       3265  MISS:       1515  HIT %:    68.3054  MISS %:    31.6946   MPKI: 0.0303
PSCL2 TRANSLATION FROM L1D PREFETCHER ACCESS:      61267  HIT:      61267  MISS:          0  HIT %:        100  MISS %:          0   MPKI: 0
PSCL2 PREFETCH  REQUESTED:          0  ISSUED:          0  USEFUL:          0  USELESS:          0
PSCL2 USEFUL LOAD PREFETCHES:          0 PREFETCH ISSUED TO LOWER LEVEL:          0  ACCURACY: -nan
PSCL2 TIMELY PREFETCHES:          0 LATE PREFETCHES: 0 DROPPED PREFETCHES: 0
PSCL2 PREFETCHES SAME FILL-ORIGIN LEVEL: 0 DIFFERENT FILL-ORIGIN LEVEL: 0

LLC TOTAL     ACCESS:    3662231  HIT:      24865  MISS:    3637366  HIT %:   0.678958  MISS %:     99.321   MPKI: 72.7473
LLC LOAD      ACCESS:      45234  HIT:       1167  MISS:      44067  HIT %:    2.57992  MISS %:    97.4201   MPKI: 0.88134
LLC RFO       ACCESS:         89  HIT:          0  MISS:         89  HIT %:          0  MISS %:        100   MPKI: 0.00178
LLC PREFETCH  ACCESS:    3595515  HIT:      17157  MISS:    3578358  HIT %:   0.477178  MISS %:    99.5228   MPKI: 71.5672
AGUS PREFETCH L1 MISS: 0
LLC WRITEBACK ACCESS:       5764  HIT:       5681  MISS:         83  HIT %:      98.56  MISS %:    1.43997   MPKI: 0.00166
LLC LOAD TRANSLATION ACCESS:       1557  HIT:        173  MISS:       1384  HIT %:    11.1111  MISS %:    88.8889   MPKI: 0.02768
LLC TRANSLATION FROM L1D PREFETCHER ACCESS:      14072  HIT:        687  MISS:      13385  HIT %:    4.88204  MISS %:     95.118   MPKI: 0.2677
LLC PREFETCH  REQUESTED:          0  ISSUED:          0  USEFUL:        758  USELESS:    3590720
LLC USEFUL LOAD PREFETCHES:        758 PREFETCH ISSUED TO LOWER LEVEL:    3578360  ACCURACY: 0.0211829
LLC TIMELY PREFETCHES:        758 LATE PREFETCHES: 0 DROPPED PREFETCHES: 0
LLC PREFETCHES SAME FILL-ORIGIN LEVEL: 0 DIFFERENT FILL-ORIGIN LEVEL: 0
LLC AVERAGE MISS LATENCY: 82.3378 cycles
LLC RQ	ACCESS:      60952	FORWARD:          0	MERGED:          0	TO_CACHE:      60952
LLC WQ	ACCESS:       5764	FORWARD:          0	MERGED:          0	TO_CACHE:       5764
LLC PQ	ACCESS:    3595517	FORWARD:          0	MERGED:          0	TO_CACHE:    3595517

LLC Dense regions hint to LLC: 0

RAW hits: 3947
Loads Generated: 17954602
Loads sent to L1D: 17950655
Stores Generated: 726205
Stores sent to L1D: 726205
Major fault: 0 Minor fault: 48887
Allocated PAGES: 48887

stream: 
stream:times selected: 15042358
stream:pref_reqs: 84926601
stream:pref_reqs_filtered_out: 79336817
stream:pref_filled: 3287906
stream:pref_useful: 2891182
stream:pref_late: 26036
stream:misses: 1687
stream:misses_by_poll: 0

CS: 
CS:times selected: 11399974
CS:pref_reqs: 33654138
CS:pref_reqs_filtered_out: 33020859
CS:pref_filled: 28337
CS:pref_useful: 27226
CS:pref_late: 2088
CS:misses: 53975
CS:misses_by_poll: 61

CPLX: 
CPLX:times selected: 3639069
CPLX:pref_reqs: 7265095
CPLX:pref_reqs_filtered_out: 6547891
CPLX:pref_filled: 407396
CPLX:pref_useful: 273343
CPLX:pref_late: 3481
CPLX:misses: 18796
CPLX:misses_by_poll: 3154

ISB: 
ISB:total access:12526689
ISB:times selected:9738648
ISB:canary counter:0
ISB:pref_reqs: 45698146
ISB:pref_reqs_filtered_out: 40644517
ISB:pref_filled: 3618286
ISB:pref_useful: 3574629
ISB:pref_late: 49653
ISB:misses: 258685
ISB:misses_by_poll: 30735
ISB:Stream end: 4652490
ISB:No Prediction: 2788041 22.2568
ISB:No translation: 215439056
ISB:Predictions: 4324121 34.5193

NL_L1: 
NL:times selected: 592
NL:pref_reqs: 592
NL:pref_reqs_filtered_out: 486
NL:pref_filled: 69
NL:pref_useful: 58
NL:pref_late: 6
NL:misses: 35
NL:misses_by_poll: 0

Coverage: 96.0136
total selections: 39820641
total_filled: 3696805
total_useful: 3383033
total_late: 85581
total_polluted: 33950
total_misses_after_warmup: 176742
conflicts: 62960

test: 0
ISB Prefetcher final stats
Prefetcher final stats

Training Unit Size: 146
Addr table size: 2535403 2537560

Triggers: 12526689
Structural address exists: 9738648 77.7432
No Prediction: 2788041 22.2568
Prefetches issued: 4324121 34.5193
Stream end: 4652490
No translation: 215439056
%Stream divergence: 356470 2.84568
Stream divergence -- new stream: 0
A: 20911824
B: 20911824
C: 15042360
D: 15042360
E: 15042360
F: 20911824
G: 430974

DRAM Statistics
 CHANNEL 0
 RQ ROW_BUFFER_HIT:    3321521  ROW_BUFFER_MISS:     315762
 DBUS_CONGESTED:       3245
 WQ ROW_BUFFER_HIT:        574  ROW_BUFFER_MISS:       5124  FULL:          0

 AVG_CONGESTED_CYCLE: 5
 All warmup complete: 2
Channel 0 Bank busy for read cycles: 0
Channel 0 Bank busy for write cycles: 0
Channel 0
Rank 0
0banks busy for read cycles: 20199446
0banks busy for write cycles: 2856
1banks busy for read cycles: 28946264
1banks busy for write cycles: 647306
2banks busy for read cycles: 49267827
2banks busy for write cycles: 256885
3banks busy for read cycles: 13513112
3banks busy for write cycles: 122134
4banks busy for read cycles: 4525578
4banks busy for write cycles: 58955
5banks busy for read cycles: 2107045
5banks busy for write cycles: 27669
6banks busy for read cycles: 1299043
6banks busy for write cycles: 13367
7banks busy for read cycles: 771869
7banks busy for write cycles: 5130
8banks busy for read cycles: 450838
8banks busy for write cycles: 2747

CPU 0 Branch Prediction Accuracy: 99.1302% MPKI: 3.1024 Average ROB Occupancy at Mispredict: 95.5944
Branch types
NOT_BRANCH: 32166917 64.3338%
BRANCH_DIRECT_JUMP: 168848 0.337696%
BRANCH_INDIRECT: 0 0%
BRANCH_CONDITIONAL: 17497543 34.9951%
BRANCH_DIRECT_CALL: 83355 0.16671%
BRANCH_INDIRECT_CALL: 0 0%
BRANCH_RETURN: 83355 0.16671%
BRANCH_OTHER: 0 0%

DRAM PAGES: 1048576
Allocated PAGES: 48887
