
*** ChampSim Multicore Out-of-Order Simulator ***

Warmup Instructions: 50000000
Simulation Instructions: 50000000
Number of CPUs: 1
LLC sets: 2048
LLC ways: 16
Off-chip DRAM Size: 4096 MB Channels: 1 Width: 64-bit Data Rate: 6400 MT/s
CPU 0 runs traces/SPEC-CPU2017/623.xalancbmk_s-10B.champsimtrace.xz
.xz
CPU 0 Bimodal branch predictor
BTB has LRU replacement policy
ITLB has LRU replacement policy
DTLB has LRU replacement policy
STLB has LRU replacement policy
L1I has LRU replacement policy
Ideal ISB Prefetching
L1D has LRU replacement policy
L2C has LRU replacement policy
LLC has LRU replacement policy
Heartbeat CPU 0 instructions: 10000001 cycles: 3143683 heartbeat IPC: 3.18098 cumulative IPC: 3.18098 (Simulation time: 0 hr 0 min 37 sec) 
Heartbeat CPU 0 instructions: 20000000 cycles: 6256905 heartbeat IPC: 3.21211 cumulative IPC: 3.19647 (Simulation time: 0 hr 1 min 16 sec) 
Heartbeat CPU 0 instructions: 30000001 cycles: 9389179 heartbeat IPC: 3.19257 cumulative IPC: 3.19517 (Simulation time: 0 hr 1 min 57 sec) 
Heartbeat CPU 0 instructions: 40000000 cycles: 12539356 heartbeat IPC: 3.17442 cumulative IPC: 3.18996 (Simulation time: 0 hr 2 min 40 sec) 
Heartbeat CPU 0 instructions: 50000003 cycles: 15699286 heartbeat IPC: 3.16463 cumulative IPC: 3.18486 (Simulation time: 0 hr 3 min 26 sec) 

Warmup complete CPU 0 instructions: 50000003 cycles: 15699286 (Simulation time: 0 hr 3 min 26 sec) 

Heartbeat CPU 0 instructions: 60000000 cycles: 45742049 heartbeat IPC: 0.332859 cumulative IPC: 0.332859 (Simulation time: 0 hr 4 min 29 sec) 
Heartbeat CPU 0 instructions: 70000000 cycles: 77048678 heartbeat IPC: 0.319421 cumulative IPC: 0.326002 (Simulation time: 0 hr 5 min 34 sec) 
Heartbeat CPU 0 instructions: 80000000 cycles: 108927643 heartbeat IPC: 0.313686 cumulative IPC: 0.32179 (Simulation time: 0 hr 6 min 42 sec) 
Heartbeat CPU 0 instructions: 90000000 cycles: 139618687 heartbeat IPC: 0.325828 cumulative IPC: 0.32279 (Simulation time: 0 hr 7 min 50 sec) 
Heartbeat CPU 0 instructions: 100000000 cycles: 172196777 heartbeat IPC: 0.306955 cumulative IPC: 0.319494 (Simulation time: 0 hr 8 min 59 sec) 
Finished CPU 0 instructions: 50000000 cycles: 156497508 cumulative IPC: 0.319494 (Simulation time: 0 hr 8 min 59 sec) 

ChampSim completed all CPUs

Region of Interest Statistics

CPU 0 cumulative IPC: 0.319494 instructions: 50000000 cycles: 156497508
ITLB TOTAL     ACCESS:    7900578  HIT:    7866669  MISS:      33909  HIT %:    99.5708  MISS %:   0.429196   MPKI: 0.67818
ITLB LOAD TRANSLATION ACCESS:    7900578  HIT:    7866669  MISS:      33909  HIT %:    99.5708  MISS %:   0.429196   MPKI: 0.67818
ITLB PREFETCH  REQUESTED:          0  ISSUED:          0  USEFUL:          0  USELESS:          0
ITLB USEFUL LOAD PREFETCHES:          0 PREFETCH ISSUED TO LOWER LEVEL:          0  ACCURACY: -nan
ITLB TIMELY PREFETCHES:          0 LATE PREFETCHES: 0 DROPPED PREFETCHES: 0
ITLB PREFETCHES SAME FILL-ORIGIN LEVEL: 0 DIFFERENT FILL-ORIGIN LEVEL: 0
ITLB AVERAGE MISS LATENCY: 18.1491 cycles
ITLB RQ	ACCESS:    9060554	FORWARD:          0	MERGED:    1150897	TO_CACHE:    7909657

DTLB TOTAL     ACCESS:   10312798  HIT:    9975472  MISS:     337326  HIT %:    96.7291  MISS %:    3.27095   MPKI: 6.74652
DTLB LOAD TRANSLATION ACCESS:   10312798  HIT:    9975472  MISS:     337326  HIT %:    96.7291  MISS %:    3.27095   MPKI: 6.74652
DTLB PREFETCH  REQUESTED:          0  ISSUED:          0  USEFUL:          0  USELESS:          0
DTLB USEFUL LOAD PREFETCHES:          0 PREFETCH ISSUED TO LOWER LEVEL:          0  ACCURACY: -nan
DTLB TIMELY PREFETCHES:          0 LATE PREFETCHES: 0 DROPPED PREFETCHES: 0
DTLB PREFETCHES SAME FILL-ORIGIN LEVEL: 0 DIFFERENT FILL-ORIGIN LEVEL: 0
DTLB AVERAGE MISS LATENCY: 14.6324 cycles
DTLB RQ	ACCESS:   11388639	FORWARD:          0	MERGED:    1052035	TO_CACHE:   10336604

STLB TOTAL     ACCESS:    1169519  HIT:     913541  MISS:     255978  HIT %:    78.1125  MISS %:    21.8875   MPKI: 5.11956
STLB LOAD TRANSLATION ACCESS:     371235  HIT:     334672  MISS:      36563  HIT %:     90.151  MISS %:    9.84902   MPKI: 0.73126
STLB TRANSLATION FROM L1D PREFETCHER ACCESS:     798284  HIT:     578869  MISS:     219415  HIT %:    72.5142  MISS %:    27.4858   MPKI: 4.3883
STLB PREFETCH  REQUESTED:          0  ISSUED:          0  USEFUL:     218596  USELESS:        838
STLB USEFUL LOAD PREFETCHES:     218596 PREFETCH ISSUED TO LOWER LEVEL:          0  ACCURACY: inf
STLB TIMELY PREFETCHES:     218596 LATE PREFETCHES: 101 DROPPED PREFETCHES: 0
STLB PREFETCHES SAME FILL-ORIGIN LEVEL: 0 DIFFERENT FILL-ORIGIN LEVEL: 0
STLB AVERAGE MISS LATENCY: 165.979 cycles
STLB RQ	ACCESS:    1244822	FORWARD:          0	MERGED:      74238	TO_CACHE:    1170584

STLB Hit, L1D data hit: 0
STLB Hit, L2C data hit: 0
STLB Hit, LLC data hit: 0
STLB Hit, LLC data miss: 0
STLB STLB hints to L2: 0
L1D TOTAL     ACCESS:   12173186  HIT:   10771903  MISS:    1401283  HIT %:    88.4888  MISS %:    11.5112   MPKI: 28.0257
L1D LOAD      ACCESS:    8969020  HIT:    8381088  MISS:     587932  HIT %:    93.4449  MISS %:    6.55514   MPKI: 11.7586
L1D RFO       ACCESS:    2334984  HIT:    2314625  MISS:      20359  HIT %:    99.1281  MISS %:   0.871912   MPKI: 0.40718
L1D PREFETCH  ACCESS:     869182  HIT:      76190  MISS:     792992  HIT %:    8.76571  MISS %:    91.2343   MPKI: 15.8598
AGUS PREFETCH L1 MISS: 0
L1D PREFETCH  REQUESTED:    1828419  ISSUED:    1747903  USEFUL:     751813  USELESS:      41180
L1D USEFUL LOAD PREFETCHES:     751813 PREFETCH ISSUED TO LOWER LEVEL:     794313  ACCURACY: 94.6495
L1D TIMELY PREFETCHES:     751813 LATE PREFETCHES: 1314 DROPPED PREFETCHES: 0
L1D PREFETCHES SAME FILL-ORIGIN LEVEL: 794313 DIFFERENT FILL-ORIGIN LEVEL: 0
L1D AVERAGE MISS LATENCY: 177.982 cycles
L1D RQ	ACCESS:   14679839	FORWARD:          0	MERGED:    5624424	TO_CACHE:    8995537
L1D WQ	ACCESS:    2425925	FORWARD:      59878	MERGED:      32823	TO_CACHE:    2393102
L1D PQ	ACCESS:     874316	FORWARD:          0	MERGED:        729	TO_CACHE:     873587

L1D UNIQUE REGIONS ACCESSED: 0
L1D REGIONS CONFLICTS: 0
L1D Cross Page Prefetch Requests: 1780116
L1D Same Page Prefetch Requests: 125159
L1D ROI Sum of L1D PQ occupancy: 70337298
L1D PREFETCHES PUSHED FROM L2C: 0
L1I TOTAL     ACCESS:    9009041  HIT:    8832994  MISS:     176047  HIT %:    98.0459  MISS %:    1.95411   MPKI: 3.52094
L1I LOAD      ACCESS:    9009041  HIT:    8832994  MISS:     176047  HIT %:    98.0459  MISS %:    1.95411   MPKI: 3.52094
L1I PREFETCH  REQUESTED:          0  ISSUED:          0  USEFUL:          0  USELESS:          0
L1I USEFUL LOAD PREFETCHES:          0 PREFETCH ISSUED TO LOWER LEVEL:          0  ACCURACY: -nan
L1I TIMELY PREFETCHES:          0 LATE PREFETCHES: 0 DROPPED PREFETCHES: 0
L1I PREFETCHES SAME FILL-ORIGIN LEVEL: 0 DIFFERENT FILL-ORIGIN LEVEL: 0
L1I AVERAGE MISS LATENCY: 38.5769 cycles
L1I RQ	ACCESS:   15173133	FORWARD:          0	MERGED:    6112579	TO_CACHE:    9060554

BTB TOTAL     ACCESS:    8240387  HIT:    8162325  MISS:      78062  HIT %:    99.0527  MISS %:    0.94731   MPKI: 1.56124
BTB BRANCH_DIRECT_JUMP	ACCESS:     125745  HIT:     125105  MISS:        640
BTB BRANCH_INDIRECT	ACCESS:      22046  HIT:       8847  MISS:      13199
BTB BRANCH_CONDITIONAL	ACCESS:    6916737  HIT:    6913889  MISS:       2848
BTB BRANCH_DIRECT_CALL	ACCESS:     323606  HIT:     322531  MISS:       1075
BTB BRANCH_INDIRECT_CALL	ACCESS:     264323  HIT:     261287  MISS:       3036
BTB BRANCH_RETURN	ACCESS:     587930  HIT:     530666  MISS:      57264
BTB BRANCH_OTHER ACCESS:          0  HIT:          0  MISS:          0

L2C TOTAL     ACCESS:    1873634  HIT:     528706  MISS:    1344928  HIT %:    28.2182  MISS %:    71.7818   MPKI: 26.8986
L2C LOAD      ACCESS:     762665  HIT:     225977  MISS:     536688  HIT %:    29.6299  MISS %:    70.3701   MPKI: 10.7338
L2C DATA LOAD MPKI: 10.0338
L2C INSTRUCTION LOAD MPKI: 0.69996
L2C RFO       ACCESS:      20347  HIT:       7020  MISS:      13327  HIT %:    34.5014  MISS %:    65.4986   MPKI: 0.26654
L2C PREFETCH  ACCESS:     794311  HIT:      60899  MISS:     733412  HIT %:     7.6669  MISS %:    92.3331   MPKI: 14.6682
AGUS PREFETCH L1 MISS: 0
L2C DATA PREFETCH MPKI: 14.6682
L2C INSTRUCTION PREFETCH MPKI: 0
L2C WRITEBACK ACCESS:      39124  HIT:      38933  MISS:        191  HIT %:    99.5118  MISS %:   0.488191   MPKI: 0.00382
L2C LOAD TRANSLATION ACCESS:      36745  HIT:      33741  MISS:       3004  HIT %:    91.8247  MISS %:    8.17526   MPKI: 0.06008
L2C TRANSLATION FROM L1D PREFETCHER ACCESS:     220442  HIT:     162136  MISS:      58306  HIT %:    73.5504  MISS %:    26.4496   MPKI: 1.16612
L2C PREFETCH  REQUESTED:          0  ISSUED:          0  USEFUL:      74417  USELESS:     718232
L2C USEFUL LOAD PREFETCHES:      74417 PREFETCH ISSUED TO LOWER LEVEL:     733412  ACCURACY: 10.1467
L2C TIMELY PREFETCHES:      74417 LATE PREFETCHES: 0 DROPPED PREFETCHES: 0
L2C PREFETCHES SAME FILL-ORIGIN LEVEL: 0 DIFFERENT FILL-ORIGIN LEVEL: 0
L2C AVERAGE MISS LATENCY: 182.223 cycles
L2C RQ	ACCESS:    1040204	FORWARD:          0	MERGED:          0	TO_CACHE:    1040199
L2C WQ	ACCESS:      39124	FORWARD:          7	MERGED:          0	TO_CACHE:      39124
L2C PQ	ACCESS:     794313	FORWARD:          0	MERGED:          0	TO_CACHE:     794311

L2C Instructions Evicting Data 33082
L2C Translations Evicting Data 57148
L2C Data Evicting Data 1158177
L2C Instructions Evicting Instructions 877
L2C Translations Evicting Instructions 1155
L2C Data Evicting Instructions 32985
L2C Instructions Evicting Translations 1039
L2C Translations Evicting Translations 3007
L2C Data Evicting Translations 57267
L2C Dense regions hint from L2: 0
PSCL5 TOTAL     ACCESS:     255978  HIT:     255978  MISS:          0  HIT %:        100  MISS %:          0   MPKI: 0
PSCL5 LOAD TRANSLATION ACCESS:      36462  HIT:      36462  MISS:          0  HIT %:        100  MISS %:          0   MPKI: 0
PSCL5 TRANSLATION FROM L1D PREFETCHER ACCESS:     219516  HIT:     219516  MISS:          0  HIT %:        100  MISS %:          0   MPKI: 0
PSCL5 PREFETCH  REQUESTED:          0  ISSUED:          0  USEFUL:          0  USELESS:          0
PSCL5 USEFUL LOAD PREFETCHES:          0 PREFETCH ISSUED TO LOWER LEVEL:          0  ACCURACY: -nan
PSCL5 TIMELY PREFETCHES:          0 LATE PREFETCHES: 0 DROPPED PREFETCHES: 0
PSCL5 PREFETCHES SAME FILL-ORIGIN LEVEL: 0 DIFFERENT FILL-ORIGIN LEVEL: 0

PSCL4 TOTAL     ACCESS:     255978  HIT:     255978  MISS:          0  HIT %:        100  MISS %:          0   MPKI: 0
PSCL4 LOAD TRANSLATION ACCESS:      36462  HIT:      36462  MISS:          0  HIT %:        100  MISS %:          0   MPKI: 0
PSCL4 TRANSLATION FROM L1D PREFETCHER ACCESS:     219516  HIT:     219516  MISS:          0  HIT %:        100  MISS %:          0   MPKI: 0
PSCL4 PREFETCH  REQUESTED:          0  ISSUED:          0  USEFUL:          0  USELESS:          0
PSCL4 USEFUL LOAD PREFETCHES:          0 PREFETCH ISSUED TO LOWER LEVEL:          0  ACCURACY: -nan
PSCL4 TIMELY PREFETCHES:          0 LATE PREFETCHES: 0 DROPPED PREFETCHES: 0
PSCL4 PREFETCHES SAME FILL-ORIGIN LEVEL: 0 DIFFERENT FILL-ORIGIN LEVEL: 0

PSCL3 TOTAL     ACCESS:     255978  HIT:     255978  MISS:          0  HIT %:        100  MISS %:          0   MPKI: 0
PSCL3 LOAD TRANSLATION ACCESS:      36462  HIT:      36462  MISS:          0  HIT %:        100  MISS %:          0   MPKI: 0
PSCL3 TRANSLATION FROM L1D PREFETCHER ACCESS:     219516  HIT:     219516  MISS:          0  HIT %:        100  MISS %:          0   MPKI: 0
PSCL3 PREFETCH  REQUESTED:          0  ISSUED:          0  USEFUL:          0  USELESS:          0
PSCL3 USEFUL LOAD PREFETCHES:          0 PREFETCH ISSUED TO LOWER LEVEL:          0  ACCURACY: -nan
PSCL3 TIMELY PREFETCHES:          0 LATE PREFETCHES: 0 DROPPED PREFETCHES: 0
PSCL3 PREFETCHES SAME FILL-ORIGIN LEVEL: 0 DIFFERENT FILL-ORIGIN LEVEL: 0

PSCL2 TOTAL     ACCESS:     255978  HIT:     254769  MISS:       1209  HIT %:    99.5277  MISS %:   0.472306   MPKI: 0.02418
PSCL2 LOAD TRANSLATION ACCESS:      37388  HIT:      36179  MISS:       1209  HIT %:    96.7663  MISS %:    3.23366   MPKI: 0.02418
PSCL2 TRANSLATION FROM L1D PREFETCHER ACCESS:     218590  HIT:     218590  MISS:          0  HIT %:        100  MISS %:          0   MPKI: 0
PSCL2 PREFETCH  REQUESTED:          0  ISSUED:          0  USEFUL:          0  USELESS:          0
PSCL2 USEFUL LOAD PREFETCHES:          0 PREFETCH ISSUED TO LOWER LEVEL:          0  ACCURACY: -nan
PSCL2 TIMELY PREFETCHES:          0 LATE PREFETCHES: 0 DROPPED PREFETCHES: 0
PSCL2 PREFETCHES SAME FILL-ORIGIN LEVEL: 0 DIFFERENT FILL-ORIGIN LEVEL: 0

LLC TOTAL     ACCESS:    1366567  HIT:     110043  MISS:    1256524  HIT %:    8.05251  MISS %:    91.9475   MPKI: 25.1305
LLC LOAD      ACCESS:     536688  HIT:      44998  MISS:     491690  HIT %:    8.38439  MISS %:    91.6156   MPKI: 9.8338
LLC RFO       ACCESS:      13327  HIT:       1440  MISS:      11887  HIT %:    10.8051  MISS %:    89.1949   MPKI: 0.23774
LLC PREFETCH  ACCESS:     733412  HIT:      38609  MISS:     694803  HIT %:     5.2643  MISS %:    94.7357   MPKI: 13.8961
AGUS PREFETCH L1 MISS: 0
LLC WRITEBACK ACCESS:      21830  HIT:      21713  MISS:        117  HIT %:     99.464  MISS %:    0.53596   MPKI: 0.00234
LLC LOAD TRANSLATION ACCESS:       3004  HIT:        742  MISS:       2262  HIT %:    24.7004  MISS %:    75.2996   MPKI: 0.04524
LLC TRANSLATION FROM L1D PREFETCHER ACCESS:      58306  HIT:       2541  MISS:      55765  HIT %:    4.35804  MISS %:     95.642   MPKI: 1.1153
LLC PREFETCH  REQUESTED:          0  ISSUED:          0  USEFUL:       9588  USELESS:     745338
LLC USEFUL LOAD PREFETCHES:       9588 PREFETCH ISSUED TO LOWER LEVEL:     694803  ACCURACY: 1.37996
LLC TIMELY PREFETCHES:       9588 LATE PREFETCHES: 0 DROPPED PREFETCHES: 0
LLC PREFETCHES SAME FILL-ORIGIN LEVEL: 0 DIFFERENT FILL-ORIGIN LEVEL: 0
LLC AVERAGE MISS LATENCY: 162.935 cycles
LLC RQ	ACCESS:     611325	FORWARD:          0	MERGED:          0	TO_CACHE:     611325
LLC WQ	ACCESS:      21830	FORWARD:          0	MERGED:          0	TO_CACHE:      21830
LLC PQ	ACCESS:     733412	FORWARD:          0	MERGED:          0	TO_CACHE:     733412

LLC Dense regions hint to LLC: 0

RAW hits: 62220
Loads Generated: 14742060
Loads sent to L1D: 14679839
Stores Generated: 2425921
Stores sent to L1D: 2425925
Major fault: 0 Minor fault: 11043
Allocated PAGES: 11043
Prefetcher final stats
Coverage: 56.1161
Training Unit Size: 881
Addr table size: 60662 60715


Triggers: 995895
No Prediction: 187366 18.8138
Stream end: 614277
No translation: 623807383 62637.9
Predictions: 1905275 191.313


Stream divergence: 265024 26.6116
Stream divergence -- new stream: 0

DRAM Statistics
 CHANNEL 0
 RQ ROW_BUFFER_HIT:     450493  ROW_BUFFER_MISS:     805914
 DBUS_CONGESTED:         76
 WQ ROW_BUFFER_HIT:       1367  ROW_BUFFER_MISS:      16755  FULL:          0

 AVG_CONGESTED_CYCLE: 4
 All warmup complete: 2
Channel 0 Bank busy for read cycles: 0
Channel 0 Bank busy for write cycles: 0
Channel 0
Rank 0
0banks busy for read cycles: 89298498
0banks busy for write cycles: 14201
1banks busy for read cycles: 26430125
1banks busy for write cycles: 2397519
2banks busy for read cycles: 16677277
2banks busy for write cycles: 411235
3banks busy for read cycles: 9740201
3banks busy for write cycles: 95012
4banks busy for read cycles: 5650052
4banks busy for write cycles: 23350
5banks busy for read cycles: 3432016
5banks busy for write cycles: 4752
6banks busy for read cycles: 1704218
6banks busy for write cycles: 493
7banks busy for read cycles: 525110
7banks busy for write cycles: 0
8banks busy for read cycles: 93450
8banks busy for write cycles: 0

CPU 0 Branch Prediction Accuracy: 94.9771% MPKI: 13.0224 Average ROB Occupancy at Mispredict: 41.9818
Branch types
NOT_BRANCH: 37037114 74.0742%
BRANCH_DIRECT_JUMP: 125745 0.25149%
BRANCH_INDIRECT: 22046 0.044092%
BRANCH_CONDITIONAL: 11639280 23.2786%
BRANCH_DIRECT_CALL: 323606 0.647212%
BRANCH_INDIRECT_CALL: 264323 0.528646%
BRANCH_RETURN: 587930 1.17586%
BRANCH_OTHER: 0 0%

DRAM PAGES: 1048576
Allocated PAGES: 11043
