
*** ChampSim Multicore Out-of-Order Simulator ***

Warmup Instructions: 50000000
Simulation Instructions: 50000000
Number of CPUs: 1
LLC sets: 2048
LLC ways: 16
Off-chip DRAM Size: 4096 MB Channels: 1 Width: 64-bit Data Rate: 6400 MT/s
CPU 0 runs traces/SPEC-CPU2017/623.xalancbmk_s-10B.champsimtrace.xz
.xz
CPU 0 Bimodal branch predictor
BTB has LRU replacement policy
ITLB has LRU replacement policy
DTLB has LRU replacement policy
STLB has LRU replacement policy
L1I has LRU replacement policy
L1D has LRU replacement policy
L2C has LRU replacement policy
LLC has LRU replacement policy
Heartbeat CPU 0 instructions: 10000001 cycles: 3154324 heartbeat IPC: 3.17025 cumulative IPC: 3.17025 (Simulation time: 0 hr 8 min 3 sec) 
Heartbeat CPU 0 instructions: 20000000 cycles: 6290627 heartbeat IPC: 3.18847 cumulative IPC: 3.17933 (Simulation time: 0 hr 16 min 33 sec) 
Heartbeat CPU 0 instructions: 30000001 cycles: 9442488 heartbeat IPC: 3.17273 cumulative IPC: 3.17713 (Simulation time: 0 hr 25 min 1 sec) 
Heartbeat CPU 0 instructions: 40000000 cycles: 12606595 heartbeat IPC: 3.16045 cumulative IPC: 3.17294 (Simulation time: 0 hr 33 min 42 sec) 
Heartbeat CPU 0 instructions: 50000000 cycles: 15782207 heartbeat IPC: 3.149 cumulative IPC: 3.16812 (Simulation time: 0 hr 42 min 27 sec) 

Warmup complete CPU 0 instructions: 50000004 cycles: 15782208 (Simulation time: 0 hr 42 min 27 sec) 

Heartbeat CPU 0 instructions: 60000000 cycles: 44033332 heartbeat IPC: 0.353968 cumulative IPC: 0.353968 (Simulation time: 0 hr 47 min 51 sec) 
Heartbeat CPU 0 instructions: 70000000 cycles: 73073586 heartbeat IPC: 0.34435 cumulative IPC: 0.349093 (Simulation time: 0 hr 53 min 1 sec) 
Heartbeat CPU 0 instructions: 80000000 cycles: 101928169 heartbeat IPC: 0.346565 cumulative IPC: 0.348246 (Simulation time: 0 hr 58 min 28 sec) 
Heartbeat CPU 0 instructions: 90000000 cycles: 129901562 heartbeat IPC: 0.357483 cumulative IPC: 0.35051 (Simulation time: 1 hr 3 min 50 sec) 
Heartbeat CPU 0 instructions: 100000000 cycles: 158903018 heartbeat IPC: 0.34481 cumulative IPC: 0.349355 (Simulation time: 1 hr 9 min 8 sec) 
Finished CPU 0 instructions: 50000003 cycles: 143120844 cumulative IPC: 0.349355 (Simulation time: 1 hr 9 min 8 sec) 

ChampSim completed all CPUs

Region of Interest Statistics

CPU 0 cumulative IPC: 0.349355 instructions: 50000003 cycles: 143120844
ITLB TOTAL     ACCESS:    7900537  HIT:    7866628  MISS:      33909  HIT %:    99.5708  MISS %:   0.429199   MPKI: 0.67818
ITLB LOAD TRANSLATION ACCESS:    7900537  HIT:    7866628  MISS:      33909  HIT %:    99.5708  MISS %:   0.429199   MPKI: 0.67818
ITLB PREFETCH  REQUESTED:          0  ISSUED:          0  USEFUL:          0  USELESS:          0
ITLB USEFUL LOAD PREFETCHES:          0 PREFETCH ISSUED TO LOWER LEVEL:          0  ACCURACY: -nan
ITLB TIMELY PREFETCHES:          0 LATE PREFETCHES: 0 DROPPED PREFETCHES: 0
ITLB PREFETCHES SAME FILL-ORIGIN LEVEL: 0 DIFFERENT FILL-ORIGIN LEVEL: 0
ITLB AVERAGE MISS LATENCY: 18.1855 cycles
ITLB RQ	ACCESS:    9060594	FORWARD:          0	MERGED:    1150964	TO_CACHE:    7909630

DTLB TOTAL     ACCESS:   10301046  HIT:    9963724  MISS:     337322  HIT %:    96.7254  MISS %:    3.27464   MPKI: 6.74644
DTLB LOAD TRANSLATION ACCESS:   10301046  HIT:    9963724  MISS:     337322  HIT %:    96.7254  MISS %:    3.27464   MPKI: 6.74644
DTLB PREFETCH  REQUESTED:          0  ISSUED:          0  USEFUL:          0  USELESS:          0
DTLB USEFUL LOAD PREFETCHES:          0 PREFETCH ISSUED TO LOWER LEVEL:          0  ACCURACY: -nan
DTLB TIMELY PREFETCHES:          0 LATE PREFETCHES: 0 DROPPED PREFETCHES: 0
DTLB PREFETCHES SAME FILL-ORIGIN LEVEL: 0 DIFFERENT FILL-ORIGIN LEVEL: 0
DTLB AVERAGE MISS LATENCY: 12.1794 cycles
DTLB RQ	ACCESS:   11387979	FORWARD:          0	MERGED:    1062643	TO_CACHE:   10325336

STLB TOTAL     ACCESS:    3909412  HIT:    3654030  MISS:     255382  HIT %:    93.4675  MISS %:    6.53249   MPKI: 5.10764
STLB LOAD TRANSLATION ACCESS:     371231  HIT:     341211  MISS:      30020  HIT %:    91.9134  MISS %:    8.08661   MPKI: 0.6004
STLB TRANSLATION FROM L1D PREFETCHER ACCESS:    3538181  HIT:    3312819  MISS:     225362  HIT %:    93.6306  MISS %:    6.36943   MPKI: 4.50724
STLB PREFETCH  REQUESTED:          0  ISSUED:          0  USEFUL:     224985  USELESS:        378
STLB USEFUL LOAD PREFETCHES:     224985 PREFETCH ISSUED TO LOWER LEVEL:          0  ACCURACY: inf
STLB TIMELY PREFETCHES:     224985 LATE PREFETCHES: 68 DROPPED PREFETCHES: 0
STLB PREFETCHES SAME FILL-ORIGIN LEVEL: 0 DIFFERENT FILL-ORIGIN LEVEL: 0
STLB AVERAGE MISS LATENCY: 114.605 cycles
STLB RQ	ACCESS:    5674363	FORWARD:          0	MERGED:    1762560	TO_CACHE:    3911803

STLB Hit, L1D data hit: 0
STLB Hit, L2C data hit: 0
STLB Hit, LLC data hit: 0
STLB Hit, LLC data miss: 0
STLB STLB hints to L2: 0
L1D TOTAL     ACCESS:   16513999  HIT:   14460555  MISS:    2053444  HIT %:    87.5654  MISS %:    12.4346   MPKI: 41.0689
L1D LOAD      ACCESS:    8975026  HIT:    8537703  MISS:     437323  HIT %:    95.1273  MISS %:    4.87267   MPKI: 8.74646
L1D RFO       ACCESS:    2333993  HIT:    2311642  MISS:      22351  HIT %:    99.0424  MISS %:   0.957629   MPKI: 0.44702
L1D PREFETCH  ACCESS:    5204980  HIT:    3611210  MISS:    1593770  HIT %:    69.3799  MISS %:    30.6201   MPKI: 31.8754
AGUS PREFETCH L1 MISS: 0
L1D PREFETCH  REQUESTED:   13292664  ISSUED:   10606978  USEFUL:     922424  USELESS:     671346
L1D USEFUL LOAD PREFETCHES:     922424 PREFETCH ISSUED TO LOWER LEVEL:    1620178  ACCURACY: 56.9335
L1D TIMELY PREFETCHES:     922424 LATE PREFETCHES: 25883 DROPPED PREFETCHES: 0
L1D PREFETCHES SAME FILL-ORIGIN LEVEL: 1620178 DIFFERENT FILL-ORIGIN LEVEL: 0
L1D AVERAGE MISS LATENCY: 168.424 cycles
L1D RQ	ACCESS:   14679849	FORWARD:          0	MERGED:    5627289	TO_CACHE:    8992747
L1D WQ	ACCESS:    2425925	FORWARD:      59822	MERGED:      30693	TO_CACHE:    2395232
L1D PQ	ACCESS:    5303846	FORWARD:          0	MERGED:        705	TO_CACHE:    5303132

L1D UNIQUE REGIONS ACCESSED: 0
L1D REGIONS CONFLICTS: 0
L1D Cross Page Prefetch Requests: 4530018
L1D Same Page Prefetch Requests: 5224434
L1D ROI Sum of L1D PQ occupancy: 163118692
L1D PREFETCHES PUSHED FROM L2C: 0
L1I TOTAL     ACCESS:    9009059  HIT:    8833026  MISS:     176033  HIT %:     98.046  MISS %:    1.95396   MPKI: 3.52066
L1I LOAD      ACCESS:    9009059  HIT:    8833026  MISS:     176033  HIT %:     98.046  MISS %:    1.95396   MPKI: 3.52066
L1I PREFETCH  REQUESTED:          0  ISSUED:          0  USEFUL:          0  USELESS:          0
L1I USEFUL LOAD PREFETCHES:          0 PREFETCH ISSUED TO LOWER LEVEL:          0  ACCURACY: -nan
L1I TIMELY PREFETCHES:          0 LATE PREFETCHES: 0 DROPPED PREFETCHES: 0
L1I PREFETCHES SAME FILL-ORIGIN LEVEL: 0 DIFFERENT FILL-ORIGIN LEVEL: 0
L1I AVERAGE MISS LATENCY: 40.1546 cycles
L1I RQ	ACCESS:   15172884	FORWARD:          0	MERGED:    6112290	TO_CACHE:    9060594

BTB TOTAL     ACCESS:    8240388  HIT:    8162326  MISS:      78062  HIT %:    99.0527  MISS %:    0.94731   MPKI: 1.56124
BTB BRANCH_DIRECT_JUMP	ACCESS:     125745  HIT:     125105  MISS:        640
BTB BRANCH_INDIRECT	ACCESS:      22046  HIT:       8847  MISS:      13199
BTB BRANCH_CONDITIONAL	ACCESS:    6916737  HIT:    6913889  MISS:       2848
BTB BRANCH_DIRECT_CALL	ACCESS:     323606  HIT:     322531  MISS:       1075
BTB BRANCH_INDIRECT_CALL	ACCESS:     264324  HIT:     261288  MISS:       3036
BTB BRANCH_RETURN	ACCESS:     587930  HIT:     530666  MISS:      57264
BTB BRANCH_OTHER ACCESS:          0  HIT:          0  MISS:          0

L2C TOTAL     ACCESS:    2533376  HIT:     576659  MISS:    1956717  HIT %:    22.7625  MISS %:    77.2375   MPKI: 39.1343
L2C LOAD      ACCESS:     587472  HIT:     203881  MISS:     383591  HIT %:    34.7048  MISS %:    65.2952   MPKI: 7.67182
L2C DATA LOAD MPKI: 6.8767
L2C INSTRUCTION LOAD MPKI: 0.79512
L2C RFO       ACCESS:      21814  HIT:       9280  MISS:      12534  HIT %:    42.5415  MISS %:    57.4585   MPKI: 0.25068
L2C PREFETCH  ACCESS:    1620175  HIT:     121312  MISS:    1498863  HIT %:    7.48759  MISS %:    92.5124   MPKI: 29.9773
AGUS PREFETCH L1 MISS: 0
L2C DATA PREFETCH MPKI: 29.9773
L2C INSTRUCTION PREFETCH MPKI: 0
L2C WRITEBACK ACCESS:      47341  HIT:      47090  MISS:        251  HIT %:    99.4698  MISS %:   0.530196   MPKI: 0.00502
L2C LOAD TRANSLATION ACCESS:      30255  HIT:      27275  MISS:       2980  HIT %:    90.1504  MISS %:    9.84961   MPKI: 0.0596
L2C TRANSLATION FROM L1D PREFETCHER ACCESS:     226319  HIT:     167821  MISS:      58498  HIT %:    74.1524  MISS %:    25.8476   MPKI: 1.16996
L2C PREFETCH  REQUESTED:          0  ISSUED:          0  USEFUL:      70011  USELESS:    1486768
L2C USEFUL LOAD PREFETCHES:      70011 PREFETCH ISSUED TO LOWER LEVEL:    1498863  ACCURACY: 4.67094
L2C TIMELY PREFETCHES:      70011 LATE PREFETCHES: 0 DROPPED PREFETCHES: 0
L2C PREFETCHES SAME FILL-ORIGIN LEVEL: 0 DIFFERENT FILL-ORIGIN LEVEL: 0
L2C AVERAGE MISS LATENCY: 169.761 cycles
L2C RQ	ACCESS:     865873	FORWARD:          0	MERGED:          0	TO_CACHE:     865860
L2C WQ	ACCESS:      47341	FORWARD:         16	MERGED:          0	TO_CACHE:      47341
L2C PQ	ACCESS:    1620178	FORWARD:          0	MERGED:          0	TO_CACHE:    1620175

L2C Instructions Evicting Data 37852
L2C Translations Evicting Data 58767
L2C Data Evicting Data 1758594
L2C Instructions Evicting Instructions 909
L2C Translations Evicting Instructions 1035
L2C Data Evicting Instructions 37829
L2C Instructions Evicting Translations 995
L2C Translations Evicting Translations 1676
L2C Data Evicting Translations 58809
L2C Dense regions hint from L2: 0
PSCL5 TOTAL     ACCESS:     255382  HIT:     255382  MISS:          0  HIT %:        100  MISS %:          0   MPKI: 0
PSCL5 LOAD TRANSLATION ACCESS:      29952  HIT:      29952  MISS:          0  HIT %:        100  MISS %:          0   MPKI: 0
PSCL5 TRANSLATION FROM L1D PREFETCHER ACCESS:     225430  HIT:     225430  MISS:          0  HIT %:        100  MISS %:          0   MPKI: 0
PSCL5 PREFETCH  REQUESTED:          0  ISSUED:          0  USEFUL:          0  USELESS:          0
PSCL5 USEFUL LOAD PREFETCHES:          0 PREFETCH ISSUED TO LOWER LEVEL:          0  ACCURACY: -nan
PSCL5 TIMELY PREFETCHES:          0 LATE PREFETCHES: 0 DROPPED PREFETCHES: 0
PSCL5 PREFETCHES SAME FILL-ORIGIN LEVEL: 0 DIFFERENT FILL-ORIGIN LEVEL: 0

PSCL4 TOTAL     ACCESS:     255382  HIT:     255382  MISS:          0  HIT %:        100  MISS %:          0   MPKI: 0
PSCL4 LOAD TRANSLATION ACCESS:      29952  HIT:      29952  MISS:          0  HIT %:        100  MISS %:          0   MPKI: 0
PSCL4 TRANSLATION FROM L1D PREFETCHER ACCESS:     225430  HIT:     225430  MISS:          0  HIT %:        100  MISS %:          0   MPKI: 0
PSCL4 PREFETCH  REQUESTED:          0  ISSUED:          0  USEFUL:          0  USELESS:          0
PSCL4 USEFUL LOAD PREFETCHES:          0 PREFETCH ISSUED TO LOWER LEVEL:          0  ACCURACY: -nan
PSCL4 TIMELY PREFETCHES:          0 LATE PREFETCHES: 0 DROPPED PREFETCHES: 0
PSCL4 PREFETCHES SAME FILL-ORIGIN LEVEL: 0 DIFFERENT FILL-ORIGIN LEVEL: 0

PSCL3 TOTAL     ACCESS:     255382  HIT:     255382  MISS:          0  HIT %:        100  MISS %:          0   MPKI: 0
PSCL3 LOAD TRANSLATION ACCESS:      29952  HIT:      29952  MISS:          0  HIT %:        100  MISS %:          0   MPKI: 0
PSCL3 TRANSLATION FROM L1D PREFETCHER ACCESS:     225430  HIT:     225430  MISS:          0  HIT %:        100  MISS %:          0   MPKI: 0
PSCL3 PREFETCH  REQUESTED:          0  ISSUED:          0  USEFUL:          0  USELESS:          0
PSCL3 USEFUL LOAD PREFETCHES:          0 PREFETCH ISSUED TO LOWER LEVEL:          0  ACCURACY: -nan
PSCL3 TIMELY PREFETCHES:          0 LATE PREFETCHES: 0 DROPPED PREFETCHES: 0
PSCL3 PREFETCHES SAME FILL-ORIGIN LEVEL: 0 DIFFERENT FILL-ORIGIN LEVEL: 0

PSCL2 TOTAL     ACCESS:     255382  HIT:     254190  MISS:       1192  HIT %:    99.5332  MISS %:   0.466752   MPKI: 0.02384
PSCL2 LOAD TRANSLATION ACCESS:      30841  HIT:      29649  MISS:       1192  HIT %:     96.135  MISS %:    3.86498   MPKI: 0.02384
PSCL2 TRANSLATION FROM L1D PREFETCHER ACCESS:     224541  HIT:     224541  MISS:          0  HIT %:        100  MISS %:          0   MPKI: 0
PSCL2 PREFETCH  REQUESTED:          0  ISSUED:          0  USEFUL:          0  USELESS:          0
PSCL2 USEFUL LOAD PREFETCHES:          0 PREFETCH ISSUED TO LOWER LEVEL:          0  ACCURACY: -nan
PSCL2 TIMELY PREFETCHES:          0 LATE PREFETCHES: 0 DROPPED PREFETCHES: 0
PSCL2 PREFETCHES SAME FILL-ORIGIN LEVEL: 0 DIFFERENT FILL-ORIGIN LEVEL: 0

LLC TOTAL     ACCESS:    1979864  HIT:     152929  MISS:    1826935  HIT %:    7.72422  MISS %:    92.2758   MPKI: 36.5387
LLC LOAD      ACCESS:     383591  HIT:      43048  MISS:     340543  HIT %:    11.2224  MISS %:    88.7776   MPKI: 6.81086
LLC RFO       ACCESS:      12534  HIT:       1670  MISS:      10864  HIT %:    13.3238  MISS %:    86.6762   MPKI: 0.21728
LLC PREFETCH  ACCESS:    1498863  HIT:      82593  MISS:    1416270  HIT %:    5.51038  MISS %:    94.4896   MPKI: 28.3254
AGUS PREFETCH L1 MISS: 0
LLC WRITEBACK ACCESS:      23398  HIT:      23255  MISS:        143  HIT %:    99.3888  MISS %:   0.611163   MPKI: 0.00286
LLC LOAD TRANSLATION ACCESS:       2980  HIT:        655  MISS:       2325  HIT %:    21.9799  MISS %:    78.0201   MPKI: 0.0465
LLC TRANSLATION FROM L1D PREFETCHER ACCESS:      58498  HIT:       1708  MISS:      56790  HIT %:    2.91976  MISS %:    97.0802   MPKI: 1.1358
LLC PREFETCH  REQUESTED:          0  ISSUED:          0  USEFUL:      11158  USELESS:    1459028
LLC USEFUL LOAD PREFETCHES:      11158 PREFETCH ISSUED TO LOWER LEVEL:    1416270  ACCURACY: 0.787844
LLC TIMELY PREFETCHES:      11158 LATE PREFETCHES: 0 DROPPED PREFETCHES: 0
LLC PREFETCHES SAME FILL-ORIGIN LEVEL: 0 DIFFERENT FILL-ORIGIN LEVEL: 0
LLC AVERAGE MISS LATENCY: 149.691 cycles
LLC RQ	ACCESS:     457603	FORWARD:          0	MERGED:          0	TO_CACHE:     457603
LLC WQ	ACCESS:      23398	FORWARD:          0	MERGED:          0	TO_CACHE:      23398
LLC PQ	ACCESS:    1498863	FORWARD:          0	MERGED:          0	TO_CACHE:    1498863

LLC Dense regions hint to LLC: 0

RAW hits: 62212
Loads Generated: 14742061
Loads sent to L1D: 14679849
Stores Generated: 2425922
Stores sent to L1D: 2425925
Major fault: 0 Minor fault: 11043
Allocated PAGES: 11043

stream: 
stream:times selected: 4100363
stream:pref_reqs: 3987489
stream:pref_reqs_filtered_out: 1376675
stream:pref_filled: 1084250
stream:pref_useful: 98822
stream:pref_late: 27887
stream:misses: 33040
stream:misses_by_poll: 0

CS: 
CS:times selected: 108147
CS:pref_reqs: 307659
CS:pref_reqs_filtered_out: 103502
CS:pref_filled: 38439
CS:pref_useful: 15967
CS:pref_late: 388
CS:misses: 1849
CS:misses_by_poll: 78

CPLX: 
CPLX:times selected: 3954696
CPLX:pref_reqs: 620082
CPLX:pref_reqs_filtered_out: 248412
CPLX:pref_filled: 209659
CPLX:pref_useful: 13472
CPLX:pref_late: 490
CPLX:misses: 93851
CPLX:misses_by_poll: 407

ISB: 
ISB:total access:15591867
ISB:times selected:14252421
ISB:canary counter:0
ISB:pref_reqs: 20644019
ISB:pref_reqs_filtered_out: 6869916
ISB:pref_filled: 1658892
ISB:pref_useful: 1590704
ISB:pref_late: 4326
ISB:misses: 843144
ISB:misses_by_poll: 12298
ISB:Stream end: 12695127
ISB:No Prediction: 1339446 8.59067
ISB:No translation: 4145164633
ISB:Predictions: 7239557 46.4316

NL_L1: 
NL:times selected: 16345
NL:pref_reqs: 16345
NL:pref_reqs_filtered_out: 2790
NL:pref_filled: 4808
NL:pref_useful: 508
NL:pref_late: 135
NL:misses: 5072
NL:misses_by_poll: 0

Coverage: 67.8379
total selections: 22431972
total_filled: 1593770
total_useful: 922424
total_late: 33728
total_polluted: 12783
total_misses_after_warmup: 455043
conflicts: 1939696

test: 0
ISB Prefetcher final stats
Prefetcher final stats
Training Unit Size: 3456
Addr table size: 65738 72907
Triggers: 15591867
Structural address exists: 14252421 91.4093
No Prediction: 1339446 8.59067
Prefetches issued: 7239557 46.4316
Stream end: 12695127
No translation: 4145164633
%Stream divergence: 448984 2.8796
Stream divergence -- new stream: 0
A: 18496439
B: 18496439
C: 4100366
D: 4100366
E: 4100366
F: 18496439
G: 5696669

DRAM Statistics
 CHANNEL 0
 RQ ROW_BUFFER_HIT:     925508  ROW_BUFFER_MISS:     901284
 DBUS_CONGESTED:        354
 WQ ROW_BUFFER_HIT:       2763  ROW_BUFFER_MISS:      15618  FULL:          0

 AVG_CONGESTED_CYCLE: 4
 All warmup complete: 2
Channel 0 Bank busy for read cycles: 0
Channel 0 Bank busy for write cycles: 0
Channel 0
Rank 0
0banks busy for read cycles: 66395560
0banks busy for write cycles: 11611
1banks busy for read cycles: 25637593
1banks busy for write cycles: 2286009
2banks busy for read cycles: 17832484
2banks busy for write cycles: 606837
3banks busy for read cycles: 12816632
3banks busy for write cycles: 205399
4banks busy for read cycles: 8720204
4banks busy for write cycles: 68374
5banks busy for read cycles: 5185837
5banks busy for write cycles: 24881
6banks busy for read cycles: 2432965
6banks busy for write cycles: 7733
7banks busy for read cycles: 760230
7banks busy for write cycles: 3756
8banks busy for read cycles: 124109
8banks busy for write cycles: 631

CPU 0 Branch Prediction Accuracy: 94.9771% MPKI: 13.0224 Average ROB Occupancy at Mispredict: 41.8903
Branch types
NOT_BRANCH: 37037111 74.0742%
BRANCH_DIRECT_JUMP: 125745 0.25149%
BRANCH_INDIRECT: 22046 0.044092%
BRANCH_CONDITIONAL: 11639280 23.2786%
BRANCH_DIRECT_CALL: 323606 0.647212%
BRANCH_INDIRECT_CALL: 264324 0.528648%
BRANCH_RETURN: 587930 1.17586%
BRANCH_OTHER: 0 0%

DRAM PAGES: 1048576
Allocated PAGES: 11043
