
*** ChampSim Multicore Out-of-Order Simulator ***

Warmup Instructions: 50000000
Simulation Instructions: 50000000
Number of CPUs: 1
LLC sets: 2048
LLC ways: 16
Off-chip DRAM Size: 4096 MB Channels: 1 Width: 64-bit Data Rate: 6400 MT/s
CPU 0 runs ./traces/GAP/SUBSET/bc-5.trace.gz
.gz
CPU 0 Bimodal branch predictor
BTB has LRU replacement policy
ITLB has LRU replacement policy
DTLB has LRU replacement policy
STLB has LRU replacement policy
L1I has LRU replacement policy
Ideal ISB Prefetching
L1D has LRU replacement policy
L2C has LRU replacement policy
LLC has LRU replacement policy
Heartbeat CPU 0 instructions: 10000002 cycles: 3696308 heartbeat IPC: 2.7054 cumulative IPC: 2.7054 (Simulation time: 0 hr 4 min 7 sec) 
Heartbeat CPU 0 instructions: 20000000 cycles: 6931457 heartbeat IPC: 3.09105 cumulative IPC: 2.8854 (Simulation time: 0 hr 9 min 37 sec) 
Heartbeat CPU 0 instructions: 30000001 cycles: 10162712 heartbeat IPC: 3.09477 cumulative IPC: 2.95197 (Simulation time: 0 hr 15 min 28 sec) 
Heartbeat CPU 0 instructions: 40000000 cycles: 13385785 heartbeat IPC: 3.10263 cumulative IPC: 2.98824 (Simulation time: 0 hr 21 min 26 sec) 
Heartbeat CPU 0 instructions: 50000000 cycles: 16617135 heartbeat IPC: 3.09468 cumulative IPC: 3.00894 (Simulation time: 0 hr 27 min 40 sec) 

Warmup complete CPU 0 instructions: 50000004 cycles: 16617136 (Simulation time: 0 hr 27 min 40 sec) 

Heartbeat CPU 0 instructions: 60000000 cycles: 64154734 heartbeat IPC: 0.21036 cumulative IPC: 0.21036 (Simulation time: 0 hr 34 min 55 sec) 
Heartbeat CPU 0 instructions: 70000000 cycles: 111190010 heartbeat IPC: 0.212606 cumulative IPC: 0.211477 (Simulation time: 0 hr 42 min 19 sec) 
Heartbeat CPU 0 instructions: 80000000 cycles: 158523523 heartbeat IPC: 0.211267 cumulative IPC: 0.211407 (Simulation time: 0 hr 49 min 44 sec) 
Heartbeat CPU 0 instructions: 90000000 cycles: 205448726 heartbeat IPC: 0.213105 cumulative IPC: 0.211829 (Simulation time: 0 hr 57 min 1 sec) 
Heartbeat CPU 0 instructions: 100000000 cycles: 251818876 heartbeat IPC: 0.215656 cumulative IPC: 0.212583 (Simulation time: 1 hr 4 min 20 sec) 
Finished CPU 0 instructions: 50000000 cycles: 235201996 cumulative IPC: 0.212583 (Simulation time: 1 hr 4 min 20 sec) 

ChampSim completed all CPUs

Region of Interest Statistics

CPU 0 cumulative IPC: 0.212583 instructions: 50000000 cycles: 235201996
ITLB TOTAL     ACCESS:    4712885  HIT:    4712885  MISS:          0  HIT %:        100  MISS %:          0   MPKI: 0
ITLB LOAD TRANSLATION ACCESS:    4712885  HIT:    4712885  MISS:          0  HIT %:        100  MISS %:          0   MPKI: 0
ITLB PREFETCH  REQUESTED:          0  ISSUED:          0  USEFUL:          0  USELESS:          0
ITLB USEFUL LOAD PREFETCHES:          0 PREFETCH ISSUED TO LOWER LEVEL:          0  ACCURACY: -nan
ITLB TIMELY PREFETCHES:          0 LATE PREFETCHES: 0 DROPPED PREFETCHES: 0
ITLB PREFETCHES SAME FILL-ORIGIN LEVEL: 0 DIFFERENT FILL-ORIGIN LEVEL: 0
ITLB AVERAGE MISS LATENCY: -nan cycles
ITLB RQ	ACCESS:    4849125	FORWARD:          0	MERGED:     136241	TO_CACHE:    4712884

DTLB TOTAL     ACCESS:   13115286  HIT:   11965332  MISS:    1149954  HIT %:     91.232  MISS %:    8.76804   MPKI: 22.9991
DTLB LOAD TRANSLATION ACCESS:   13115286  HIT:   11965332  MISS:    1149954  HIT %:     91.232  MISS %:    8.76804   MPKI: 22.9991
DTLB PREFETCH  REQUESTED:          0  ISSUED:          0  USEFUL:          0  USELESS:          0
DTLB USEFUL LOAD PREFETCHES:          0 PREFETCH ISSUED TO LOWER LEVEL:          0  ACCURACY: -nan
DTLB TIMELY PREFETCHES:          0 LATE PREFETCHES: 0 DROPPED PREFETCHES: 0
DTLB PREFETCHES SAME FILL-ORIGIN LEVEL: 0 DIFFERENT FILL-ORIGIN LEVEL: 0
DTLB AVERAGE MISS LATENCY: 21.4877 cycles
DTLB RQ	ACCESS:   14261934	FORWARD:          0	MERGED:    1041836	TO_CACHE:   13220098

STLB TOTAL     ACCESS:    4345685  HIT:    3490020  MISS:     855665  HIT %:      80.31  MISS %:      19.69   MPKI: 17.1133
STLB LOAD TRANSLATION ACCESS:    1149954  HIT:     758019  MISS:     391935  HIT %:    65.9173  MISS %:    34.0827   MPKI: 7.8387
STLB TRANSLATION FROM L1D PREFETCHER ACCESS:    3195731  HIT:    2732001  MISS:     463730  HIT %:    85.4891  MISS %:    14.5109   MPKI: 9.2746
STLB PREFETCH  REQUESTED:          0  ISSUED:          0  USEFUL:     427154  USELESS:      36543
STLB USEFUL LOAD PREFETCHES:     427154 PREFETCH ISSUED TO LOWER LEVEL:          0  ACCURACY: inf
STLB TIMELY PREFETCHES:     427154 LATE PREFETCHES: 6790 DROPPED PREFETCHES: 0
STLB PREFETCHES SAME FILL-ORIGIN LEVEL: 0 DIFFERENT FILL-ORIGIN LEVEL: 0
STLB AVERAGE MISS LATENCY: 39.8667 cycles
STLB RQ	ACCESS:    6133400	FORWARD:          0	MERGED:    1758492	TO_CACHE:    4374908

STLB Hit, L1D data hit: 0
STLB Hit, L2C data hit: 0
STLB Hit, LLC data hit: 0
STLB Hit, LLC data miss: 0
STLB STLB hints to L2: 0
L1D TOTAL     ACCESS:   18825232  HIT:   11759550  MISS:    7065682  HIT %:     62.467  MISS %:     37.533   MPKI: 141.314
L1D LOAD      ACCESS:   10485389  HIT:    6819895  MISS:    3665494  HIT %:    65.0419  MISS %:    34.9581   MPKI: 73.3099
L1D RFO       ACCESS:    3550563  HIT:    3538214  MISS:      12349  HIT %:    99.6522  MISS %:   0.347804   MPKI: 0.24698
L1D PREFETCH  ACCESS:    4789280  HIT:    1401441  MISS:    3387839  HIT %:     29.262  MISS %:     70.738   MPKI: 67.7568
AGUS PREFETCH L1 MISS: 0
L1D PREFETCH  REQUESTED:   11104331  ISSUED:   10329915  USEFUL:     350128  USELESS:    3037684
L1D USEFUL LOAD PREFETCHES:     350128 PREFETCH ISSUED TO LOWER LEVEL:    3432704  ACCURACY: 10.1998
L1D TIMELY PREFETCHES:     350128 LATE PREFETCHES: 44864 DROPPED PREFETCHES: 0
L1D PREFETCHES SAME FILL-ORIGIN LEVEL: 3432704 DIFFERENT FILL-ORIGIN LEVEL: 0
L1D AVERAGE MISS LATENCY: 180.179 cycles
L1D RQ	ACCESS:   14821206	FORWARD:          0	MERGED:    4060856	TO_CACHE:   10693016
L1D WQ	ACCESS:    4026353	FORWARD:      67348	MERGED:     457435	TO_CACHE:    3568918
L1D PQ	ACCESS:    5346469	FORWARD:          0	MERGED:     363009	TO_CACHE:    4983446

L1D UNIQUE REGIONS ACCESSED: 0
L1D REGIONS CONFLICTS: 0
L1D Cross Page Prefetch Requests: 7368087
L1D Same Page Prefetch Requests: 4682835
L1D ROI Sum of L1D PQ occupancy: 136635052
L1D PREFETCHES PUSHED FROM L2C: 0
L1I TOTAL     ACCESS:    4849126  HIT:    4849126  MISS:          0  HIT %:        100  MISS %:          0   MPKI: 0
L1I LOAD      ACCESS:    4849126  HIT:    4849126  MISS:          0  HIT %:        100  MISS %:          0   MPKI: 0
L1I PREFETCH  REQUESTED:          0  ISSUED:          0  USEFUL:          0  USELESS:          0
L1I USEFUL LOAD PREFETCHES:          0 PREFETCH ISSUED TO LOWER LEVEL:          0  ACCURACY: -nan
L1I TIMELY PREFETCHES:          0 LATE PREFETCHES: 0 DROPPED PREFETCHES: 0
L1I PREFETCHES SAME FILL-ORIGIN LEVEL: 0 DIFFERENT FILL-ORIGIN LEVEL: 0
L1I AVERAGE MISS LATENCY: -nan cycles
L1I RQ	ACCESS:    9439866	FORWARD:          0	MERGED:    4590741	TO_CACHE:    4849125

BTB TOTAL     ACCESS:    6742349  HIT:    6742335  MISS:         14  HIT %:    99.9998  MISS %: 0.000207643   MPKI: 0.00028
BTB BRANCH_DIRECT_JUMP	ACCESS:      98814  HIT:      98810  MISS:          4
BTB BRANCH_INDIRECT	ACCESS:          0  HIT:          0  MISS:          0
BTB BRANCH_CONDITIONAL	ACCESS:    6643523  HIT:    6643515  MISS:          8
BTB BRANCH_DIRECT_CALL	ACCESS:          6  HIT:          5  MISS:          1
BTB BRANCH_INDIRECT_CALL	ACCESS:          0  HIT:          0  MISS:          0
BTB BRANCH_RETURN	ACCESS:          6  HIT:          5  MISS:          1
BTB BRANCH_OTHER ACCESS:          0  HIT:          0  MISS:          0

L2C TOTAL     ACCESS:    9838002  HIT:    3064968  MISS:    6773034  HIT %:    31.1544  MISS %:    68.8456   MPKI: 135.461
L2C LOAD      ACCESS:    3620630  HIT:     152683  MISS:    3467947  HIT %:    4.21703  MISS %:     95.783   MPKI: 69.3589
L2C DATA LOAD MPKI: 69.3589
L2C INSTRUCTION LOAD MPKI: 0
L2C RFO       ACCESS:      12349  HIT:        148  MISS:      12201  HIT %:    1.19848  MISS %:    98.8015   MPKI: 0.24402
L2C PREFETCH  ACCESS:    3432701  HIT:     225984  MISS:    3206717  HIT %:    6.58327  MISS %:    93.4167   MPKI: 64.1343
AGUS PREFETCH L1 MISS: 0
L2C DATA PREFETCH MPKI: 64.1343
L2C INSTRUCTION PREFETCH MPKI: 0
L2C WRITEBACK ACCESS:    1916644  HIT:    1916581  MISS:         63  HIT %:    99.9967  MISS %:   0.003287   MPKI: 0.00126
L2C LOAD TRANSLATION ACCESS:     385155  HIT:     359197  MISS:      25958  HIT %:    93.2604  MISS %:    6.73962   MPKI: 0.51916
L2C TRANSLATION FROM L1D PREFETCHER ACCESS:     470523  HIT:     410375  MISS:      60148  HIT %:    87.2168  MISS %:    12.7832   MPKI: 1.20296
L2C PREFETCH  REQUESTED:          0  ISSUED:          0  USEFUL:     109086  USELESS:    3157921
L2C USEFUL LOAD PREFETCHES:     109086 PREFETCH ISSUED TO LOWER LEVEL:    3206721  ACCURACY: 3.40179
L2C TIMELY PREFETCHES:     109086 LATE PREFETCHES: 0 DROPPED PREFETCHES: 0
L2C PREFETCHES SAME FILL-ORIGIN LEVEL: 0 DIFFERENT FILL-ORIGIN LEVEL: 0
L2C AVERAGE MISS LATENCY: 172.695 cycles
L2C RQ	ACCESS:    4488661	FORWARD:          0	MERGED:          0	TO_CACHE:    4488661
L2C WQ	ACCESS:    1916645	FORWARD:          1	MERGED:          0	TO_CACHE:    1916645
L2C PQ	ACCESS:    3432704	FORWARD:          0	MERGED:          0	TO_CACHE:    3432703

L2C Instructions Evicting Data 0
L2C Translations Evicting Data 84325
L2C Data Evicting Data 6602609
L2C Instructions Evicting Instructions 0
L2C Translations Evicting Instructions 0
L2C Data Evicting Instructions 0
L2C Instructions Evicting Translations 0
L2C Translations Evicting Translations 1781
L2C Data Evicting Translations 84256
L2C Dense regions hint from L2: 0
PSCL5 TOTAL     ACCESS:     855665  HIT:     855665  MISS:          0  HIT %:        100  MISS %:          0   MPKI: 0
PSCL5 LOAD TRANSLATION ACCESS:     385145  HIT:     385145  MISS:          0  HIT %:        100  MISS %:          0   MPKI: 0
PSCL5 TRANSLATION FROM L1D PREFETCHER ACCESS:     470520  HIT:     470520  MISS:          0  HIT %:        100  MISS %:          0   MPKI: 0
PSCL5 PREFETCH  REQUESTED:          0  ISSUED:          0  USEFUL:          0  USELESS:          0
PSCL5 USEFUL LOAD PREFETCHES:          0 PREFETCH ISSUED TO LOWER LEVEL:          0  ACCURACY: -nan
PSCL5 TIMELY PREFETCHES:          0 LATE PREFETCHES: 0 DROPPED PREFETCHES: 0
PSCL5 PREFETCHES SAME FILL-ORIGIN LEVEL: 0 DIFFERENT FILL-ORIGIN LEVEL: 0

PSCL4 TOTAL     ACCESS:     855665  HIT:     855665  MISS:          0  HIT %:        100  MISS %:          0   MPKI: 0
PSCL4 LOAD TRANSLATION ACCESS:     385145  HIT:     385145  MISS:          0  HIT %:        100  MISS %:          0   MPKI: 0
PSCL4 TRANSLATION FROM L1D PREFETCHER ACCESS:     470520  HIT:     470520  MISS:          0  HIT %:        100  MISS %:          0   MPKI: 0
PSCL4 PREFETCH  REQUESTED:          0  ISSUED:          0  USEFUL:          0  USELESS:          0
PSCL4 USEFUL LOAD PREFETCHES:          0 PREFETCH ISSUED TO LOWER LEVEL:          0  ACCURACY: -nan
PSCL4 TIMELY PREFETCHES:          0 LATE PREFETCHES: 0 DROPPED PREFETCHES: 0
PSCL4 PREFETCHES SAME FILL-ORIGIN LEVEL: 0 DIFFERENT FILL-ORIGIN LEVEL: 0

PSCL3 TOTAL     ACCESS:     855665  HIT:     855665  MISS:          0  HIT %:        100  MISS %:          0   MPKI: 0
PSCL3 LOAD TRANSLATION ACCESS:     385145  HIT:     385145  MISS:          0  HIT %:        100  MISS %:          0   MPKI: 0
PSCL3 TRANSLATION FROM L1D PREFETCHER ACCESS:     470520  HIT:     470520  MISS:          0  HIT %:        100  MISS %:          0   MPKI: 0
PSCL3 PREFETCH  REQUESTED:          0  ISSUED:          0  USEFUL:          0  USELESS:          0
PSCL3 USEFUL LOAD PREFETCHES:          0 PREFETCH ISSUED TO LOWER LEVEL:          0  ACCURACY: -nan
PSCL3 TIMELY PREFETCHES:          0 LATE PREFETCHES: 0 DROPPED PREFETCHES: 0
PSCL3 PREFETCHES SAME FILL-ORIGIN LEVEL: 0 DIFFERENT FILL-ORIGIN LEVEL: 0

PSCL2 TOTAL     ACCESS:     855665  HIT:     855630  MISS:         35  HIT %:    99.9959  MISS %: 0.00409039   MPKI: 0.0007
PSCL2 LOAD TRANSLATION ACCESS:     385148  HIT:     385113  MISS:         35  HIT %:    99.9909  MISS %: 0.00908742   MPKI: 0.0007
PSCL2 TRANSLATION FROM L1D PREFETCHER ACCESS:     470517  HIT:     470517  MISS:          0  HIT %:        100  MISS %:          0   MPKI: 0
PSCL2 PREFETCH  REQUESTED:          0  ISSUED:          0  USEFUL:          0  USELESS:          0
PSCL2 USEFUL LOAD PREFETCHES:          0 PREFETCH ISSUED TO LOWER LEVEL:          0  ACCURACY: -nan
PSCL2 TIMELY PREFETCHES:          0 LATE PREFETCHES: 0 DROPPED PREFETCHES: 0
PSCL2 PREFETCHES SAME FILL-ORIGIN LEVEL: 0 DIFFERENT FILL-ORIGIN LEVEL: 0

LLC TOTAL     ACCESS:    8650997  HIT:    4246407  MISS:    4404590  HIT %:    49.0858  MISS %:    50.9142   MPKI: 88.0918
LLC LOAD      ACCESS:    3467946  HIT:     949953  MISS:    2517993  HIT %:    27.3924  MISS %:    72.6076   MPKI: 50.3599
LLC RFO       ACCESS:      12201  HIT:        147  MISS:      12054  HIT %:    1.20482  MISS %:    98.7952   MPKI: 0.24108
LLC PREFETCH  ACCESS:    3206707  HIT:    1344578  MISS:    1862129  HIT %:    41.9302  MISS %:    58.0698   MPKI: 37.2426
AGUS PREFETCH L1 MISS: 0
LLC WRITEBACK ACCESS:    1878037  HIT:    1877990  MISS:         47  HIT %:    99.9975  MISS %: 0.00250261   MPKI: 0.00094
LLC LOAD TRANSLATION ACCESS:      25958  HIT:      22378  MISS:       3580  HIT %:    86.2085  MISS %:    13.7915   MPKI: 0.0716
LLC TRANSLATION FROM L1D PREFETCHER ACCESS:      60148  HIT:      51361  MISS:       8787  HIT %:     85.391  MISS %:     14.609   MPKI: 0.17574
LLC PREFETCH  REQUESTED:          0  ISSUED:          0  USEFUL:     219404  USELESS:    1652656
LLC USEFUL LOAD PREFETCHES:     219404 PREFETCH ISSUED TO LOWER LEVEL:    1862133  ACCURACY: 11.7824
LLC TIMELY PREFETCHES:     219404 LATE PREFETCHES: 0 DROPPED PREFETCHES: 0
LLC PREFETCHES SAME FILL-ORIGIN LEVEL: 0 DIFFERENT FILL-ORIGIN LEVEL: 0
LLC AVERAGE MISS LATENCY: 219.365 cycles
LLC RQ	ACCESS:    3566259	FORWARD:          0	MERGED:          0	TO_CACHE:    3566256
LLC WQ	ACCESS:    1878036	FORWARD:         13	MERGED:          0	TO_CACHE:    1878036
LLC PQ	ACCESS:    3206721	FORWARD:          0	MERGED:          0	TO_CACHE:    3206711

LLC Dense regions hint to LLC: 0

RAW hits: 1381820
Loads Generated: 16203026
Loads sent to L1D: 14821206
Stores Generated: 4026354
Stores sent to L1D: 4026353
Major fault: 0 Minor fault: 12249
Allocated PAGES: 12249
Prefetcher final stats
Training Unit Size: 323
Addr table size: 397144 397333


Triggers: 20349660
Structural address exists: 16215135 79.6826
No Prediction: 4134525 20.3174
Prefetches issued: 12050922 59.2193
Useful Prefetches: 350128
Useless Prefetches: 3037684
Stream end: 15697695
No translation: 1300028745
%Stream divergence: 1811302 8.9009
Stream divergence -- new stream: 0

DRAM Statistics
 CHANNEL 0
 RQ ROW_BUFFER_HIT:    1045682  ROW_BUFFER_MISS:    3357442
 DBUS_CONGESTED:        803
 WQ ROW_BUFFER_HIT:     602652  ROW_BUFFER_MISS:     887207  FULL:          0

 AVG_CONGESTED_CYCLE: 5
 All warmup complete: 2
Channel 0 Bank busy for read cycles: 0
Channel 0 Bank busy for write cycles: 0
Channel 0
Rank 0
0banks busy for read cycles: 773513
0banks busy for write cycles: 2368
1banks busy for read cycles: 44259531
1banks busy for write cycles: 879772
2banks busy for read cycles: 33663374
2banks busy for write cycles: 1093008
3banks busy for read cycles: 27734306
3banks busy for write cycles: 1360406
4banks busy for read cycles: 23314236
4banks busy for write cycles: 1772297
5banks busy for read cycles: 19373884
5banks busy for write cycles: 2438219
6banks busy for read cycles: 14824330
6banks busy for write cycles: 4237526
7banks busy for read cycles: 8962992
7banks busy for write cycles: 11771012
8banks busy for read cycles: 2952927
8banks busy for write cycles: 35788296

CPU 0 Branch Prediction Accuracy: 93.8016% MPKI: 8.36614 Average ROB Occupancy at Mispredict: 92.1616
Branch types
NOT_BRANCH: 43251275 86.5025%
BRANCH_DIRECT_JUMP: 98814 0.197628%
BRANCH_INDIRECT: 0 0%
BRANCH_CONDITIONAL: 6649819 13.2996%
BRANCH_DIRECT_CALL: 6 1.2e-05%
BRANCH_INDIRECT_CALL: 0 0%
BRANCH_RETURN: 6 1.2e-05%
BRANCH_OTHER: 0 0%

DRAM PAGES: 1048576
Allocated PAGES: 12249
