
*** ChampSim Multicore Out-of-Order Simulator ***

Warmup Instructions: 50000000
Simulation Instructions: 50000000
Number of CPUs: 1
LLC sets: 2048
LLC ways: 16
Off-chip DRAM Size: 4096 MB Channels: 1 Width: 64-bit Data Rate: 6400 MT/s
CPU 0 runs ./traces/GAP/SUBSET/bc-5.trace.gz
.gz
CPU 0 Bimodal branch predictor
BTB has LRU replacement policy
ITLB has LRU replacement policy
DTLB has LRU replacement policy
STLB has LRU replacement policy
L1I has LRU replacement policy
Ideal ISB Prefetching
L1D has LRU replacement policy
L2C has LRU replacement policy
LLC has LRU replacement policy
Heartbeat CPU 0 instructions: 10000002 cycles: 3695561 heartbeat IPC: 2.70595 cumulative IPC: 2.70595 (Simulation time: 0 hr 3 min 34 sec) 
Heartbeat CPU 0 instructions: 20000000 cycles: 6931202 heartbeat IPC: 3.09058 cumulative IPC: 2.8855 (Simulation time: 0 hr 8 min 12 sec) 
Heartbeat CPU 0 instructions: 30000001 cycles: 10163180 heartbeat IPC: 3.09408 cumulative IPC: 2.95183 (Simulation time: 0 hr 13 min 18 sec) 
Heartbeat CPU 0 instructions: 40000000 cycles: 13387943 heartbeat IPC: 3.101 cumulative IPC: 2.98776 (Simulation time: 0 hr 18 min 20 sec) 
Heartbeat CPU 0 instructions: 50000002 cycles: 16620327 heartbeat IPC: 3.09369 cumulative IPC: 3.00836 (Simulation time: 0 hr 23 min 34 sec) 

Warmup complete CPU 0 instructions: 50000002 cycles: 16620327 (Simulation time: 0 hr 23 min 34 sec) 

Heartbeat CPU 0 instructions: 60000000 cycles: 64262137 heartbeat IPC: 0.2099 cumulative IPC: 0.2099 (Simulation time: 0 hr 29 min 45 sec) 
Heartbeat CPU 0 instructions: 70000001 cycles: 111158277 heartbeat IPC: 0.213237 cumulative IPC: 0.211555 (Simulation time: 0 hr 36 min 25 sec) 
Heartbeat CPU 0 instructions: 80000000 cycles: 158397166 heartbeat IPC: 0.21169 cumulative IPC: 0.2116 (Simulation time: 0 hr 42 min 39 sec) 
Heartbeat CPU 0 instructions: 90000000 cycles: 205219925 heartbeat IPC: 0.213571 cumulative IPC: 0.21209 (Simulation time: 0 hr 48 min 55 sec) 
Heartbeat CPU 0 instructions: 100000000 cycles: 251507600 heartbeat IPC: 0.21604 cumulative IPC: 0.212868 (Simulation time: 0 hr 55 min 13 sec) 
Finished CPU 0 instructions: 50000002 cycles: 234887429 cumulative IPC: 0.212868 (Simulation time: 0 hr 55 min 13 sec) 

ChampSim completed all CPUs

Region of Interest Statistics

CPU 0 cumulative IPC: 0.212868 instructions: 50000002 cycles: 234887429
ITLB TOTAL     ACCESS:    4713309  HIT:    4713309  MISS:          0  HIT %:        100  MISS %:          0   MPKI: 0
ITLB LOAD TRANSLATION ACCESS:    4713309  HIT:    4713309  MISS:          0  HIT %:        100  MISS %:          0   MPKI: 0
ITLB PREFETCH  REQUESTED:          0  ISSUED:          0  USEFUL:          0  USELESS:          0
ITLB USEFUL LOAD PREFETCHES:          0 PREFETCH ISSUED TO LOWER LEVEL:          0  ACCURACY: -nan
ITLB TIMELY PREFETCHES:          0 LATE PREFETCHES: 0 DROPPED PREFETCHES: 0
ITLB PREFETCHES SAME FILL-ORIGIN LEVEL: 0 DIFFERENT FILL-ORIGIN LEVEL: 0
ITLB AVERAGE MISS LATENCY: -nan cycles
ITLB RQ	ACCESS:    4849500	FORWARD:          0	MERGED:     136192	TO_CACHE:    4713308

DTLB TOTAL     ACCESS:   13116673  HIT:   11966724  MISS:    1149949  HIT %:    91.2329  MISS %:    8.76708   MPKI: 22.999
DTLB LOAD TRANSLATION ACCESS:   13116673  HIT:   11966724  MISS:    1149949  HIT %:    91.2329  MISS %:    8.76708   MPKI: 22.999
DTLB PREFETCH  REQUESTED:          0  ISSUED:          0  USEFUL:          0  USELESS:          0
DTLB USEFUL LOAD PREFETCHES:          0 PREFETCH ISSUED TO LOWER LEVEL:          0  ACCURACY: -nan
DTLB TIMELY PREFETCHES:          0 LATE PREFETCHES: 0 DROPPED PREFETCHES: 0
DTLB PREFETCHES SAME FILL-ORIGIN LEVEL: 0 DIFFERENT FILL-ORIGIN LEVEL: 0
DTLB AVERAGE MISS LATENCY: 21.4452 cycles
DTLB RQ	ACCESS:   14262144	FORWARD:          0	MERGED:    1042502	TO_CACHE:   13219642

STLB TOTAL     ACCESS:    4435485  HIT:    3573314  MISS:     862171  HIT %:     80.562  MISS %:     19.438   MPKI: 17.2434
STLB LOAD TRANSLATION ACCESS:    1149948  HIT:     764279  MISS:     385669  HIT %:     66.462  MISS %:     33.538   MPKI: 7.71338
STLB TRANSLATION FROM L1D PREFETCHER ACCESS:    3285537  HIT:    2809035  MISS:     476502  HIT %:     85.497  MISS %:     14.503   MPKI: 9.53004
STLB PREFETCH  REQUESTED:          0  ISSUED:          0  USEFUL:     438617  USELESS:      37843
STLB USEFUL LOAD PREFETCHES:     438617 PREFETCH ISSUED TO LOWER LEVEL:          0  ACCURACY: inf
STLB TIMELY PREFETCHES:     438617 LATE PREFETCHES: 7216 DROPPED PREFETCHES: 0
STLB PREFETCHES SAME FILL-ORIGIN LEVEL: 0 DIFFERENT FILL-ORIGIN LEVEL: 0
STLB AVERAGE MISS LATENCY: 40.1468 cycles
STLB RQ	ACCESS:    6118725	FORWARD:          0	MERGED:    1652623	TO_CACHE:    4466102

STLB Hit, L1D data hit: 0
STLB Hit, L2C data hit: 0
STLB Hit, LLC data hit: 0
STLB Hit, LLC data miss: 0
STLB STLB hints to L2: 0
L1D TOTAL     ACCESS:   18821739  HIT:   11788477  MISS:    7033262  HIT %:    62.6322  MISS %:    37.3678   MPKI: 140.665
L1D LOAD      ACCESS:   10486129  HIT:    6835657  MISS:    3650472  HIT %:    65.1876  MISS %:    34.8124   MPKI: 73.0094
L1D RFO       ACCESS:    3551033  HIT:    3538687  MISS:      12346  HIT %:    99.6523  MISS %:   0.347673   MPKI: 0.24692
L1D PREFETCH  ACCESS:    4784577  HIT:    1414133  MISS:    3370444  HIT %:    29.5561  MISS %:    70.4439   MPKI: 67.4089
AGUS PREFETCH L1 MISS: 0
L1D PREFETCH  REQUESTED:   11048255  ISSUED:   10296573  USEFUL:     365127  USELESS:    3005261
L1D USEFUL LOAD PREFETCHES:     365127 PREFETCH ISSUED TO LOWER LEVEL:    3414594  ACCURACY: 10.6931
L1D TIMELY PREFETCHES:     365127 LATE PREFETCHES: 44150 DROPPED PREFETCHES: 0
L1D PREFETCHES SAME FILL-ORIGIN LEVEL: 3414594 DIFFERENT FILL-ORIGIN LEVEL: 0
L1D AVERAGE MISS LATENCY: 180.587 cycles
L1D RQ	ACCESS:   14821245	FORWARD:          0	MERGED:    4061259	TO_CACHE:   10692764
L1D WQ	ACCESS:    4026353	FORWARD:      67238	MERGED:     456973	TO_CACHE:    3569380
L1D PQ	ACCESS:    5327796	FORWARD:          0	MERGED:     359003	TO_CACHE:    4968777

L1D UNIQUE REGIONS ACCESSED: 0
L1D REGIONS CONFLICTS: 0
L1D Cross Page Prefetch Requests: 8154324
L1D Same Page Prefetch Requests: 4406072
L1D ROI Sum of L1D PQ occupancy: 136615306
L1D PREFETCHES PUSHED FROM L2C: 0
L1I TOTAL     ACCESS:    4849501  HIT:    4849501  MISS:          0  HIT %:        100  MISS %:          0   MPKI: 0
L1I LOAD      ACCESS:    4849501  HIT:    4849501  MISS:          0  HIT %:        100  MISS %:          0   MPKI: 0
L1I PREFETCH  REQUESTED:          0  ISSUED:          0  USEFUL:          0  USELESS:          0
L1I USEFUL LOAD PREFETCHES:          0 PREFETCH ISSUED TO LOWER LEVEL:          0  ACCURACY: -nan
L1I TIMELY PREFETCHES:          0 LATE PREFETCHES: 0 DROPPED PREFETCHES: 0
L1I PREFETCHES SAME FILL-ORIGIN LEVEL: 0 DIFFERENT FILL-ORIGIN LEVEL: 0
L1I AVERAGE MISS LATENCY: -nan cycles
L1I RQ	ACCESS:    9440689	FORWARD:          0	MERGED:    4591189	TO_CACHE:    4849500

BTB TOTAL     ACCESS:    6742349  HIT:    6742335  MISS:         14  HIT %:    99.9998  MISS %: 0.000207643   MPKI: 0.00028
BTB BRANCH_DIRECT_JUMP	ACCESS:      98814  HIT:      98810  MISS:          4
BTB BRANCH_INDIRECT	ACCESS:          0  HIT:          0  MISS:          0
BTB BRANCH_CONDITIONAL	ACCESS:    6643523  HIT:    6643515  MISS:          8
BTB BRANCH_DIRECT_CALL	ACCESS:          6  HIT:          5  MISS:          1
BTB BRANCH_INDIRECT_CALL	ACCESS:          0  HIT:          0  MISS:          0
BTB BRANCH_RETURN	ACCESS:          6  HIT:          5  MISS:          1
BTB BRANCH_OTHER ACCESS:          0  HIT:          0  MISS:          0

L2C TOTAL     ACCESS:    9812101  HIT:    3065868  MISS:    6746233  HIT %:    31.2458  MISS %:    68.7542   MPKI: 134.925
L2C LOAD      ACCESS:    3606321  HIT:     152496  MISS:    3453825  HIT %:    4.22858  MISS %:    95.7714   MPKI: 69.0765
L2C DATA LOAD MPKI: 69.0765
L2C INSTRUCTION LOAD MPKI: 0
L2C RFO       ACCESS:      12346  HIT:        134  MISS:      12212  HIT %:    1.08537  MISS %:    98.9146   MPKI: 0.24424
L2C PREFETCH  ACCESS:    3414594  HIT:     219930  MISS:    3194664  HIT %:    6.44088  MISS %:    93.5591   MPKI: 63.8933
AGUS PREFETCH L1 MISS: 0
L2C DATA PREFETCH MPKI: 63.8933
L2C INSTRUCTION PREFETCH MPKI: 0
L2C WRITEBACK ACCESS:    1916655  HIT:    1916593  MISS:         62  HIT %:    99.9968  MISS %:  0.0032348   MPKI: 0.00124
L2C LOAD TRANSLATION ACCESS:     378463  HIT:     352676  MISS:      25787  HIT %:    93.1864  MISS %:    6.81361   MPKI: 0.51574
L2C TRANSLATION FROM L1D PREFETCHER ACCESS:     483722  HIT:     424039  MISS:      59683  HIT %:    87.6617  MISS %:    12.3383   MPKI: 1.19366
L2C PREFETCH  REQUESTED:          0  ISSUED:          0  USEFUL:     108411  USELESS:    3146084
L2C USEFUL LOAD PREFETCHES:     108411 PREFETCH ISSUED TO LOWER LEVEL:    3194665  ACCURACY: 3.3935
L2C TIMELY PREFETCHES:     108411 LATE PREFETCHES: 0 DROPPED PREFETCHES: 0
L2C PREFETCHES SAME FILL-ORIGIN LEVEL: 0 DIFFERENT FILL-ORIGIN LEVEL: 0
L2C AVERAGE MISS LATENCY: 173.027 cycles
L2C RQ	ACCESS:    4480859	FORWARD:          0	MERGED:          0	TO_CACHE:    4480859
L2C WQ	ACCESS:    1916655	FORWARD:          0	MERGED:          0	TO_CACHE:    1916655
L2C PQ	ACCESS:    3414594	FORWARD:          0	MERGED:          0	TO_CACHE:    3414594

L2C Instructions Evicting Data 0
L2C Translations Evicting Data 83753
L2C Data Evicting Data 6577013
L2C Instructions Evicting Instructions 0
L2C Translations Evicting Instructions 0
L2C Data Evicting Instructions 0
L2C Instructions Evicting Translations 0
L2C Translations Evicting Translations 1717
L2C Data Evicting Translations 83688
L2C Dense regions hint from L2: 0
PSCL5 TOTAL     ACCESS:     862172  HIT:     862172  MISS:          0  HIT %:        100  MISS %:          0   MPKI: 0
PSCL5 LOAD TRANSLATION ACCESS:     378453  HIT:     378453  MISS:          0  HIT %:        100  MISS %:          0   MPKI: 0
PSCL5 TRANSLATION FROM L1D PREFETCHER ACCESS:     483719  HIT:     483719  MISS:          0  HIT %:        100  MISS %:          0   MPKI: 0
PSCL5 PREFETCH  REQUESTED:          0  ISSUED:          0  USEFUL:          0  USELESS:          0
PSCL5 USEFUL LOAD PREFETCHES:          0 PREFETCH ISSUED TO LOWER LEVEL:          0  ACCURACY: -nan
PSCL5 TIMELY PREFETCHES:          0 LATE PREFETCHES: 0 DROPPED PREFETCHES: 0
PSCL5 PREFETCHES SAME FILL-ORIGIN LEVEL: 0 DIFFERENT FILL-ORIGIN LEVEL: 0

PSCL4 TOTAL     ACCESS:     862172  HIT:     862172  MISS:          0  HIT %:        100  MISS %:          0   MPKI: 0
PSCL4 LOAD TRANSLATION ACCESS:     378453  HIT:     378453  MISS:          0  HIT %:        100  MISS %:          0   MPKI: 0
PSCL4 TRANSLATION FROM L1D PREFETCHER ACCESS:     483719  HIT:     483719  MISS:          0  HIT %:        100  MISS %:          0   MPKI: 0
PSCL4 PREFETCH  REQUESTED:          0  ISSUED:          0  USEFUL:          0  USELESS:          0
PSCL4 USEFUL LOAD PREFETCHES:          0 PREFETCH ISSUED TO LOWER LEVEL:          0  ACCURACY: -nan
PSCL4 TIMELY PREFETCHES:          0 LATE PREFETCHES: 0 DROPPED PREFETCHES: 0
PSCL4 PREFETCHES SAME FILL-ORIGIN LEVEL: 0 DIFFERENT FILL-ORIGIN LEVEL: 0

PSCL3 TOTAL     ACCESS:     862172  HIT:     862172  MISS:          0  HIT %:        100  MISS %:          0   MPKI: 0
PSCL3 LOAD TRANSLATION ACCESS:     378453  HIT:     378453  MISS:          0  HIT %:        100  MISS %:          0   MPKI: 0
PSCL3 TRANSLATION FROM L1D PREFETCHER ACCESS:     483719  HIT:     483719  MISS:          0  HIT %:        100  MISS %:          0   MPKI: 0
PSCL3 PREFETCH  REQUESTED:          0  ISSUED:          0  USEFUL:          0  USELESS:          0
PSCL3 USEFUL LOAD PREFETCHES:          0 PREFETCH ISSUED TO LOWER LEVEL:          0  ACCURACY: -nan
PSCL3 TIMELY PREFETCHES:          0 LATE PREFETCHES: 0 DROPPED PREFETCHES: 0
PSCL3 PREFETCHES SAME FILL-ORIGIN LEVEL: 0 DIFFERENT FILL-ORIGIN LEVEL: 0

PSCL2 TOTAL     ACCESS:     862172  HIT:     862137  MISS:         35  HIT %:    99.9959  MISS %: 0.00405951   MPKI: 0.0007
PSCL2 LOAD TRANSLATION ACCESS:     378456  HIT:     378421  MISS:         35  HIT %:    99.9908  MISS %:  0.0092481   MPKI: 0.0007
PSCL2 TRANSLATION FROM L1D PREFETCHER ACCESS:     483716  HIT:     483716  MISS:          0  HIT %:        100  MISS %:          0   MPKI: 0
PSCL2 PREFETCH  REQUESTED:          0  ISSUED:          0  USEFUL:          0  USELESS:          0
PSCL2 USEFUL LOAD PREFETCHES:          0 PREFETCH ISSUED TO LOWER LEVEL:          0  ACCURACY: -nan
PSCL2 TIMELY PREFETCHES:          0 LATE PREFETCHES: 0 DROPPED PREFETCHES: 0
PSCL2 PREFETCHES SAME FILL-ORIGIN LEVEL: 0 DIFFERENT FILL-ORIGIN LEVEL: 0

LLC TOTAL     ACCESS:    8623843  HIT:    4221753  MISS:    4402090  HIT %:    48.9544  MISS %:    51.0456   MPKI: 88.0418
LLC LOAD      ACCESS:    3453820  HIT:     949511  MISS:    2504309  HIT %:    27.4916  MISS %:    72.5084   MPKI: 50.0862
LLC RFO       ACCESS:      12212  HIT:        158  MISS:      12054  HIT %:    1.29381  MISS %:    98.7062   MPKI: 0.24108
LLC PREFETCH  ACCESS:    3194648  HIT:    1321452  MISS:    1873196  HIT %:    41.3646  MISS %:    58.6354   MPKI: 37.4639
AGUS PREFETCH L1 MISS: 0
LLC WRITEBACK ACCESS:    1877693  HIT:    1877642  MISS:         51  HIT %:    99.9973  MISS %:  0.0027161   MPKI: 0.00102
LLC LOAD TRANSLATION ACCESS:      25787  HIT:      22114  MISS:       3673  HIT %:    85.7564  MISS %:    14.2436   MPKI: 0.07346
LLC TRANSLATION FROM L1D PREFETCHER ACCESS:      59683  HIT:      50876  MISS:       8807  HIT %:    85.2437  MISS %:    14.7563   MPKI: 0.17614
LLC PREFETCH  REQUESTED:          0  ISSUED:          0  USEFUL:     224223  USELESS:    1658607
LLC USEFUL LOAD PREFETCHES:     224223 PREFETCH ISSUED TO LOWER LEVEL:    1873196  ACCURACY: 11.9701
LLC TIMELY PREFETCHES:     224223 LATE PREFETCHES: 0 DROPPED PREFETCHES: 0
LLC PREFETCHES SAME FILL-ORIGIN LEVEL: 0 DIFFERENT FILL-ORIGIN LEVEL: 0
LLC AVERAGE MISS LATENCY: 219.129 cycles
LLC RQ	ACCESS:    3551514	FORWARD:          0	MERGED:          0	TO_CACHE:    3551509
LLC WQ	ACCESS:    1877692	FORWARD:         21	MERGED:          0	TO_CACHE:    1877692
LLC PQ	ACCESS:    3194665	FORWARD:          0	MERGED:          0	TO_CACHE:    3194649

LLC Dense regions hint to LLC: 0

RAW hits: 1381781
Loads Generated: 16203026
Loads sent to L1D: 14821245
Stores Generated: 4026354
Stores sent to L1D: 4026353
Major fault: 0 Minor fault: 12249
Allocated PAGES: 12249
Prefetcher final stats
Training Unit Size: 114
Addr table size: 398019 398019


Triggers: 20354723
Structural address exists: 13185008 64.7762
No Prediction: 7169715 35.2238
Prefetches issued: 12560396 61.7075
Useful Prefetches: 365127
Useless Prefetches: 3005261
Stream end: 12566757
No translation: 2262446897
%Stream divergence: 1659250 8.15167
Stream divergence -- new stream: 0

DRAM Statistics
 CHANNEL 0
 RQ ROW_BUFFER_HIT:    1054623  ROW_BUFFER_MISS:    3345968
 DBUS_CONGESTED:        859
 WQ ROW_BUFFER_HIT:     601672  ROW_BUFFER_MISS:     887719  FULL:          0

 AVG_CONGESTED_CYCLE: 5
 All warmup complete: 2
Channel 0 Bank busy for read cycles: 0
Channel 0 Bank busy for write cycles: 0
Channel 0
Rank 0
0banks busy for read cycles: 777892
0banks busy for write cycles: 2448
1banks busy for read cycles: 44241005
1banks busy for write cycles: 891001
2banks busy for read cycles: 33709778
2banks busy for write cycles: 1093684
3banks busy for read cycles: 27654441
3banks busy for write cycles: 1358196
4banks busy for read cycles: 23277905
4banks busy for write cycles: 1721822
5banks busy for read cycles: 19366297
5banks busy for write cycles: 2435668
6banks busy for read cycles: 14793591
6banks busy for write cycles: 4200013
7banks busy for read cycles: 8885321
7banks busy for write cycles: 11671440
8banks busy for read cycles: 2918013
8banks busy for write cycles: 35888915

CPU 0 Branch Prediction Accuracy: 93.8016% MPKI: 8.36614 Average ROB Occupancy at Mispredict: 92.1407
Branch types
NOT_BRANCH: 43251276 86.5025%
BRANCH_DIRECT_JUMP: 98814 0.197628%
BRANCH_INDIRECT: 0 0%
BRANCH_CONDITIONAL: 6649819 13.2996%
BRANCH_DIRECT_CALL: 6 1.2e-05%
BRANCH_INDIRECT_CALL: 0 0%
BRANCH_RETURN: 6 1.2e-05%
BRANCH_OTHER: 0 0%

DRAM PAGES: 1048576
Allocated PAGES: 12249
