
*** ChampSim Multicore Out-of-Order Simulator ***

Warmup Instructions: 50000000
Simulation Instructions: 50000000
Number of CPUs: 1
LLC sets: 2048
LLC ways: 16
Off-chip DRAM Size: 4096 MB Channels: 1 Width: 64-bit Data Rate: 6400 MT/s
CPU 0 runs ./traces/GAP/SUBSET/bc-5.trace.gz
.gz
CPU 0 Bimodal branch predictor
BTB has LRU replacement policy
ITLB has LRU replacement policy
DTLB has LRU replacement policy
STLB has LRU replacement policy
L1I has LRU replacement policy
L1D has LRU replacement policy
Ideal ISB Prefetching
L2C has LRU replacement policy
LLC has LRU replacement policy
Heartbeat CPU 0 instructions: 10000002 cycles: 3700976 heartbeat IPC: 2.70199 cumulative IPC: 2.70199 (Simulation time: 0 hr 2 min 12 sec) 
Heartbeat CPU 0 instructions: 20000000 cycles: 6943468 heartbeat IPC: 3.08405 cumulative IPC: 2.8804 (Simulation time: 0 hr 5 min 17 sec) 
Heartbeat CPU 0 instructions: 30000001 cycles: 10182820 heartbeat IPC: 3.08704 cumulative IPC: 2.94614 (Simulation time: 0 hr 8 min 28 sec) 
Heartbeat CPU 0 instructions: 40000000 cycles: 13414335 heartbeat IPC: 3.09452 cumulative IPC: 2.98188 (Simulation time: 0 hr 11 min 35 sec) 
Heartbeat CPU 0 instructions: 50000002 cycles: 16656410 heartbeat IPC: 3.08444 cumulative IPC: 3.00185 (Simulation time: 0 hr 15 min 2 sec) 

Warmup complete CPU 0 instructions: 50000002 cycles: 16656410 (Simulation time: 0 hr 15 min 2 sec) 

Heartbeat CPU 0 instructions: 60000000 cycles: 65316163 heartbeat IPC: 0.205509 cumulative IPC: 0.205509 (Simulation time: 0 hr 19 min 8 sec) 
Heartbeat CPU 0 instructions: 70000000 cycles: 113193253 heartbeat IPC: 0.208868 cumulative IPC: 0.207175 (Simulation time: 0 hr 23 min 14 sec) 
Heartbeat CPU 0 instructions: 80000000 cycles: 161700307 heartbeat IPC: 0.206156 cumulative IPC: 0.206834 (Simulation time: 0 hr 27 min 17 sec) 
Heartbeat CPU 0 instructions: 90000000 cycles: 209664782 heartbeat IPC: 0.208488 cumulative IPC: 0.207245 (Simulation time: 0 hr 31 min 29 sec) 
Heartbeat CPU 0 instructions: 100000000 cycles: 257006811 heartbeat IPC: 0.211229 cumulative IPC: 0.20803 (Simulation time: 0 hr 35 min 33 sec) 
Finished CPU 0 instructions: 50000002 cycles: 240350657 cumulative IPC: 0.208029 (Simulation time: 0 hr 35 min 33 sec) 

ChampSim completed all CPUs

Region of Interest Statistics

CPU 0 cumulative IPC: 0.208029 instructions: 50000002 cycles: 240350657
ITLB TOTAL     ACCESS:    4714776  HIT:    4714776  MISS:          0  HIT %:        100  MISS %:          0   MPKI: 0
ITLB LOAD TRANSLATION ACCESS:    4714776  HIT:    4714776  MISS:          0  HIT %:        100  MISS %:          0   MPKI: 0
ITLB PREFETCH  REQUESTED:          0  ISSUED:          0  USEFUL:          0  USELESS:          0
ITLB USEFUL LOAD PREFETCHES:          0 PREFETCH ISSUED TO LOWER LEVEL:          0  ACCURACY: -nan
ITLB TIMELY PREFETCHES:          0 LATE PREFETCHES: 0 DROPPED PREFETCHES: 0
ITLB PREFETCHES SAME FILL-ORIGIN LEVEL: 0 DIFFERENT FILL-ORIGIN LEVEL: 0
ITLB AVERAGE MISS LATENCY: -nan cycles
ITLB RQ	ACCESS:    4850863	FORWARD:          0	MERGED:     136088	TO_CACHE:    4714775

DTLB TOTAL     ACCESS:   12998024  HIT:   11848081  MISS:    1149943  HIT %:    91.1529  MISS %:    8.84706   MPKI: 22.9989
DTLB LOAD TRANSLATION ACCESS:   12998024  HIT:   11848081  MISS:    1149943  HIT %:    91.1529  MISS %:    8.84706   MPKI: 22.9989
DTLB PREFETCH  REQUESTED:          0  ISSUED:          0  USEFUL:          0  USELESS:          0
DTLB USEFUL LOAD PREFETCHES:          0 PREFETCH ISSUED TO LOWER LEVEL:          0  ACCURACY: -nan
DTLB TIMELY PREFETCHES:          0 LATE PREFETCHES: 0 DROPPED PREFETCHES: 0
DTLB PREFETCHES SAME FILL-ORIGIN LEVEL: 0 DIFFERENT FILL-ORIGIN LEVEL: 0
DTLB AVERAGE MISS LATENCY: 32.1307 cycles
DTLB RQ	ACCESS:   14261384	FORWARD:          0	MERGED:    1032967	TO_CACHE:   13228417

STLB TOTAL     ACCESS:    1149942  HIT:     458395  MISS:     691547  HIT %:    39.8624  MISS %:    60.1376   MPKI: 13.8309
STLB LOAD TRANSLATION ACCESS:    1149942  HIT:     458395  MISS:     691547  HIT %:    39.8624  MISS %:    60.1376   MPKI: 13.8309
STLB PREFETCH  REQUESTED:          0  ISSUED:          0  USEFUL:          0  USELESS:          0
STLB USEFUL LOAD PREFETCHES:          0 PREFETCH ISSUED TO LOWER LEVEL:          0  ACCURACY: -nan
STLB TIMELY PREFETCHES:          0 LATE PREFETCHES: 0 DROPPED PREFETCHES: 0
STLB PREFETCHES SAME FILL-ORIGIN LEVEL: 0 DIFFERENT FILL-ORIGIN LEVEL: 0
STLB AVERAGE MISS LATENCY: 38.204 cycles
STLB RQ	ACCESS:    1149942	FORWARD:          0	MERGED:          0	TO_CACHE:    1149942

STLB Hit, L1D data hit: 0
STLB Hit, L2C data hit: 0
STLB Hit, LLC data hit: 0
STLB Hit, LLC data miss: 0
STLB STLB hints to L2: 0
L1D TOTAL     ACCESS:   14033275  HIT:   10009689  MISS:    4023586  HIT %:    71.3282  MISS %:    28.6718   MPKI: 80.4717
L1D LOAD      ACCESS:   10478145  HIT:    6466819  MISS:    4011326  HIT %:    61.7172  MISS %:    38.2828   MPKI: 80.2265
L1D RFO       ACCESS:    3555130  HIT:    3542870  MISS:      12260  HIT %:    99.6551  MISS %:   0.344854   MPKI: 0.2452
L1D PREFETCH  REQUESTED:          0  ISSUED:          0  USEFUL:          0  USELESS:          0
L1D USEFUL LOAD PREFETCHES:          0 PREFETCH ISSUED TO LOWER LEVEL:          0  ACCURACY: -nan
L1D TIMELY PREFETCHES:          0 LATE PREFETCHES: 0 DROPPED PREFETCHES: 0
L1D PREFETCHES SAME FILL-ORIGIN LEVEL: 0 DIFFERENT FILL-ORIGIN LEVEL: 0
L1D AVERAGE MISS LATENCY: 174.361 cycles
L1D RQ	ACCESS:   14816964	FORWARD:          0	MERGED:    4061467	TO_CACHE:   10687929
L1D WQ	ACCESS:    4026353	FORWARD:      67568	MERGED:     452898	TO_CACHE:    3573455

L1D UNIQUE REGIONS ACCESSED: 0
L1D REGIONS CONFLICTS: 0
L1D Cross Page Prefetch Requests: 0
L1D Same Page Prefetch Requests: 0
L1D ROI Sum of L1D PQ occupancy: 0
L1D PREFETCHES PUSHED FROM L2C: 0
L1I TOTAL     ACCESS:    4850864  HIT:    4850864  MISS:          0  HIT %:        100  MISS %:          0   MPKI: 0
L1I LOAD      ACCESS:    4850864  HIT:    4850864  MISS:          0  HIT %:        100  MISS %:          0   MPKI: 0
L1I PREFETCH  REQUESTED:          0  ISSUED:          0  USEFUL:          0  USELESS:          0
L1I USEFUL LOAD PREFETCHES:          0 PREFETCH ISSUED TO LOWER LEVEL:          0  ACCURACY: -nan
L1I TIMELY PREFETCHES:          0 LATE PREFETCHES: 0 DROPPED PREFETCHES: 0
L1I PREFETCHES SAME FILL-ORIGIN LEVEL: 0 DIFFERENT FILL-ORIGIN LEVEL: 0
L1I AVERAGE MISS LATENCY: -nan cycles
L1I RQ	ACCESS:    9448575	FORWARD:          0	MERGED:    4597712	TO_CACHE:    4850863

BTB TOTAL     ACCESS:    6742349  HIT:    6742335  MISS:         14  HIT %:    99.9998  MISS %: 0.000207643   MPKI: 0.00028
BTB BRANCH_DIRECT_JUMP	ACCESS:      98814  HIT:      98810  MISS:          4
BTB BRANCH_INDIRECT	ACCESS:          0  HIT:          0  MISS:          0
BTB BRANCH_CONDITIONAL	ACCESS:    6643523  HIT:    6643515  MISS:          8
BTB BRANCH_DIRECT_CALL	ACCESS:          6  HIT:          5  MISS:          1
BTB BRANCH_INDIRECT_CALL	ACCESS:          0  HIT:          0  MISS:          0
BTB BRANCH_RETURN	ACCESS:          6  HIT:          5  MISS:          1
BTB BRANCH_OTHER ACCESS:          0  HIT:          0  MISS:          0

L2C TOTAL     ACCESS:   10984680  HIT:    3853193  MISS:    7131487  HIT %:    35.0779  MISS %:    64.9221   MPKI: 142.63
L2C LOAD      ACCESS:    4011325  HIT:     543399  MISS:    3467926  HIT %:    13.5466  MISS %:    86.4534   MPKI: 69.3585
L2C DATA LOAD MPKI: 69.3585
L2C INSTRUCTION LOAD MPKI: 0
L2C RFO       ACCESS:      12260  HIT:         46  MISS:      12214  HIT %:   0.375204  MISS %:    99.6248   MPKI: 0.24428
L2C PREFETCH  ACCESS:    4353994  HIT:     795257  MISS:    3558737  HIT %:     18.265  MISS %:     81.735   MPKI: 71.1747
AGUS PREFETCH L1 MISS: 0
L2C DATA PREFETCH MPKI: 71.1747
L2C INSTRUCTION PREFETCH MPKI: 0
L2C WRITEBACK ACCESS:    1915541  HIT:    1915261  MISS:        280  HIT %:    99.9854  MISS %:  0.0146173   MPKI: 0.0056
L2C LOAD TRANSLATION ACCESS:     691560  HIT:     599230  MISS:      92330  HIT %:     86.649  MISS %:     13.351   MPKI: 1.8466
L2C PREFETCH  REQUESTED:    4659494  ISSUED:    4644789  USEFUL:     440637  USELESS:    3117964
L2C USEFUL LOAD PREFETCHES:     440637 PREFETCH ISSUED TO LOWER LEVEL:    3610303  ACCURACY: 12.205
L2C TIMELY PREFETCHES:     440637 LATE PREFETCHES: 51552 DROPPED PREFETCHES: 0
L2C PREFETCHES SAME FILL-ORIGIN LEVEL: 3610303 DIFFERENT FILL-ORIGIN LEVEL: 0
L2C AVERAGE MISS LATENCY: 176.034 cycles
L2C RQ	ACCESS:    4715151	FORWARD:          0	MERGED:          0	TO_CACHE:    4715150
L2C WQ	ACCESS:    1915542	FORWARD:          1	MERGED:          0	TO_CACHE:    1915542
L2C PQ	ACCESS:    4644789	FORWARD:          0	MERGED:     117528	TO_CACHE:    4527261

L2C Instructions Evicting Data 0
L2C Translations Evicting Data 90541
L2C Data Evicting Data 6948410
L2C Instructions Evicting Instructions 0
L2C Translations Evicting Instructions 0
L2C Data Evicting Instructions 0
L2C Instructions Evicting Translations 0
L2C Translations Evicting Translations 1789
L2C Data Evicting Translations 90467
L2C Dense regions hint from L2: 0
PSCL5 TOTAL     ACCESS:     691547  HIT:     691547  MISS:          0  HIT %:        100  MISS %:          0   MPKI: 0
PSCL5 LOAD TRANSLATION ACCESS:     691547  HIT:     691547  MISS:          0  HIT %:        100  MISS %:          0   MPKI: 0
PSCL5 PREFETCH  REQUESTED:          0  ISSUED:          0  USEFUL:          0  USELESS:          0
PSCL5 USEFUL LOAD PREFETCHES:          0 PREFETCH ISSUED TO LOWER LEVEL:          0  ACCURACY: -nan
PSCL5 TIMELY PREFETCHES:          0 LATE PREFETCHES: 0 DROPPED PREFETCHES: 0
PSCL5 PREFETCHES SAME FILL-ORIGIN LEVEL: 0 DIFFERENT FILL-ORIGIN LEVEL: 0

PSCL4 TOTAL     ACCESS:     691547  HIT:     691547  MISS:          0  HIT %:        100  MISS %:          0   MPKI: 0
PSCL4 LOAD TRANSLATION ACCESS:     691547  HIT:     691547  MISS:          0  HIT %:        100  MISS %:          0   MPKI: 0
PSCL4 PREFETCH  REQUESTED:          0  ISSUED:          0  USEFUL:          0  USELESS:          0
PSCL4 USEFUL LOAD PREFETCHES:          0 PREFETCH ISSUED TO LOWER LEVEL:          0  ACCURACY: -nan
PSCL4 TIMELY PREFETCHES:          0 LATE PREFETCHES: 0 DROPPED PREFETCHES: 0
PSCL4 PREFETCHES SAME FILL-ORIGIN LEVEL: 0 DIFFERENT FILL-ORIGIN LEVEL: 0

PSCL3 TOTAL     ACCESS:     691547  HIT:     691547  MISS:          0  HIT %:        100  MISS %:          0   MPKI: 0
PSCL3 LOAD TRANSLATION ACCESS:     691547  HIT:     691547  MISS:          0  HIT %:        100  MISS %:          0   MPKI: 0
PSCL3 PREFETCH  REQUESTED:          0  ISSUED:          0  USEFUL:          0  USELESS:          0
PSCL3 USEFUL LOAD PREFETCHES:          0 PREFETCH ISSUED TO LOWER LEVEL:          0  ACCURACY: -nan
PSCL3 TIMELY PREFETCHES:          0 LATE PREFETCHES: 0 DROPPED PREFETCHES: 0
PSCL3 PREFETCHES SAME FILL-ORIGIN LEVEL: 0 DIFFERENT FILL-ORIGIN LEVEL: 0

PSCL2 TOTAL     ACCESS:     691547  HIT:     691512  MISS:         35  HIT %:    99.9949  MISS %: 0.00506112   MPKI: 0.0007
PSCL2 LOAD TRANSLATION ACCESS:     691547  HIT:     691512  MISS:         35  HIT %:    99.9949  MISS %: 0.00506112   MPKI: 0.0007
PSCL2 PREFETCH  REQUESTED:          0  ISSUED:          0  USEFUL:          0  USELESS:          0
PSCL2 USEFUL LOAD PREFETCHES:          0 PREFETCH ISSUED TO LOWER LEVEL:          0  ACCURACY: -nan
PSCL2 TIMELY PREFETCHES:          0 LATE PREFETCHES: 0 DROPPED PREFETCHES: 0
PSCL2 PREFETCHES SAME FILL-ORIGIN LEVEL: 0 DIFFERENT FILL-ORIGIN LEVEL: 0

LLC TOTAL     ACCESS:    9012487  HIT:    4393133  MISS:    4619354  HIT %:     48.745  MISS %:     51.255   MPKI: 92.3871
LLC LOAD      ACCESS:    3416368  HIT:     908418  MISS:    2507950  HIT %:    26.5902  MISS %:    73.4098   MPKI: 50.159
LLC RFO       ACCESS:      12214  HIT:        140  MISS:      12074  HIT %:    1.14623  MISS %:    98.8538   MPKI: 0.24148
LLC PREFETCH  ACCESS:    3610284  HIT:    1524107  MISS:    2086177  HIT %:    42.2157  MISS %:    57.7843   MPKI: 41.7235
AGUS PREFETCH L1 MISS: 0
LLC WRITEBACK ACCESS:    1881291  HIT:    1881254  MISS:         37  HIT %:     99.998  MISS %: 0.00196673   MPKI: 0.00074
LLC LOAD TRANSLATION ACCESS:      92330  HIT:      79214  MISS:      13116  HIT %:    85.7944  MISS %:    14.2056   MPKI: 0.26232
LLC PREFETCH  REQUESTED:          0  ISSUED:          0  USEFUL:     223582  USELESS:    1863208
LLC USEFUL LOAD PREFETCHES:     223582 PREFETCH ISSUED TO LOWER LEVEL:    2086191  ACCURACY: 10.7172
LLC TIMELY PREFETCHES:     223582 LATE PREFETCHES: 0 DROPPED PREFETCHES: 0
LLC PREFETCHES SAME FILL-ORIGIN LEVEL: 0 DIFFERENT FILL-ORIGIN LEVEL: 0
LLC AVERAGE MISS LATENCY: 225.394 cycles
LLC RQ	ACCESS:    3520923	FORWARD:          0	MERGED:          0	TO_CACHE:    3520917
LLC WQ	ACCESS:    1881292	FORWARD:         12	MERGED:          0	TO_CACHE:    1881292
LLC PQ	ACCESS:    3610303	FORWARD:          0	MERGED:          0	TO_CACHE:    3610297

LLC Dense regions hint to LLC: 0

RAW hits: 1386062
Loads Generated: 16203026
Loads sent to L1D: 14816964
Stores Generated: 4026354
Stores sent to L1D: 4026353
Major fault: 0 Minor fault: 12249
Allocated PAGES: 12249
Prefetcher final stats
Training Unit Size: 108
Addr table size: 396990 396990


Triggers: 7669502
Structural address exists: 6634086 86.4996
No Prediction: 1035416 13.5004
Prefetches issued: 9071893 118.285
Useful Prefetches: 440637
Useless Prefetches: 3117964
Stream end: 6513149
No translation: 2322007204
%Stream divergence: 1795140 23.4062
Stream divergence -- new stream: 0

DRAM Statistics
 CHANNEL 0
 RQ ROW_BUFFER_HIT:    1170751  ROW_BUFFER_MISS:    3447185
 DBUS_CONGESTED:        908
 WQ ROW_BUFFER_HIT:     619424  ROW_BUFFER_MISS:     889801  FULL:          0

 AVG_CONGESTED_CYCLE: 5
 All warmup complete: 2
Channel 0 Bank busy for read cycles: 0
Channel 0 Bank busy for write cycles: 0
Channel 0
Rank 0
0banks busy for read cycles: 932258
0banks busy for write cycles: 3637
1banks busy for read cycles: 45594155
1banks busy for write cycles: 1108266
2banks busy for read cycles: 33399432
2banks busy for write cycles: 1376380
3banks busy for read cycles: 27197412
3banks busy for write cycles: 1747270
4banks busy for read cycles: 22828281
4banks busy for write cycles: 2211568
5banks busy for read cycles: 18932902
5banks busy for write cycles: 2995392
6banks busy for read cycles: 14959436
6banks busy for write cycles: 4964830
7banks busy for read cycles: 10192888
7banks busy for write cycles: 12257979
8banks busy for read cycles: 4835774
8banks busy for write cycles: 34812798

CPU 0 Branch Prediction Accuracy: 93.8016% MPKI: 8.36614 Average ROB Occupancy at Mispredict: 92.6786
Branch types
NOT_BRANCH: 43251276 86.5025%
BRANCH_DIRECT_JUMP: 98814 0.197628%
BRANCH_INDIRECT: 0 0%
BRANCH_CONDITIONAL: 6649819 13.2996%
BRANCH_DIRECT_CALL: 6 1.2e-05%
BRANCH_INDIRECT_CALL: 0 0%
BRANCH_RETURN: 6 1.2e-05%
BRANCH_OTHER: 0 0%

DRAM PAGES: 1048576
Allocated PAGES: 12249
