
*** ChampSim Multicore Out-of-Order Simulator ***

Warmup Instructions: 50000000
Simulation Instructions: 50000000
Number of CPUs: 1
LLC sets: 2048
LLC ways: 16
Off-chip DRAM Size: 4096 MB Channels: 1 Width: 64-bit Data Rate: 6400 MT/s
CPU 0 runs ./traces/GAP/SUBSET/bfs-8.trace.gz
.gz
CPU 0 Bimodal branch predictor
BTB has LRU replacement policy
ITLB has LRU replacement policy
DTLB has LRU replacement policy
STLB has LRU replacement policy
L1I has LRU replacement policy
Ideal ISB Prefetching
L1D has LRU replacement policy
L2C has LRU replacement policy
LLC has LRU replacement policy
Heartbeat CPU 0 instructions: 10000002 cycles: 2954010 heartbeat IPC: 3.38523 cumulative IPC: 3.38523 (Simulation time: 0 hr 1 min 1 sec) 
Heartbeat CPU 0 instructions: 20000000 cycles: 6061837 heartbeat IPC: 3.21768 cumulative IPC: 3.29933 (Simulation time: 0 hr 5 min 33 sec) 
Heartbeat CPU 0 instructions: 30000002 cycles: 9196498 heartbeat IPC: 3.19014 cumulative IPC: 3.26211 (Simulation time: 0 hr 9 min 36 sec) 
Heartbeat CPU 0 instructions: 40000000 cycles: 12431818 heartbeat IPC: 3.09088 cumulative IPC: 3.21755 (Simulation time: 0 hr 13 min 2 sec) 
Heartbeat CPU 0 instructions: 50000002 cycles: 15702492 heartbeat IPC: 3.05747 cumulative IPC: 3.18421 (Simulation time: 0 hr 17 min 28 sec) 

Warmup complete CPU 0 instructions: 50000002 cycles: 15702492 (Simulation time: 0 hr 17 min 28 sec) 

Heartbeat CPU 0 instructions: 60000000 cycles: 36418552 heartbeat IPC: 0.482717 cumulative IPC: 0.482717 (Simulation time: 0 hr 22 min 24 sec) 
Heartbeat CPU 0 instructions: 70000001 cycles: 54662305 heartbeat IPC: 0.548133 cumulative IPC: 0.513349 (Simulation time: 0 hr 23 min 21 sec) 
Heartbeat CPU 0 instructions: 80000000 cycles: 83694568 heartbeat IPC: 0.344444 cumulative IPC: 0.441228 (Simulation time: 0 hr 26 min 45 sec) 
Heartbeat CPU 0 instructions: 90000000 cycles: 118102524 heartbeat IPC: 0.29063 cumulative IPC: 0.390625 (Simulation time: 0 hr 33 min 4 sec) 
Heartbeat CPU 0 instructions: 100000000 cycles: 152546616 heartbeat IPC: 0.290326 cumulative IPC: 0.365379 (Simulation time: 0 hr 39 min 27 sec) 
Finished CPU 0 instructions: 50000000 cycles: 136844133 cumulative IPC: 0.365379 (Simulation time: 0 hr 39 min 27 sec) 

ChampSim completed all CPUs

Region of Interest Statistics

CPU 0 cumulative IPC: 0.365379 instructions: 50000000 cycles: 136844133
ITLB TOTAL     ACCESS:    7968266  HIT:    7968266  MISS:          0  HIT %:        100  MISS %:          0   MPKI: 0
ITLB LOAD TRANSLATION ACCESS:    7968266  HIT:    7968266  MISS:          0  HIT %:        100  MISS %:          0   MPKI: 0
ITLB PREFETCH  REQUESTED:          0  ISSUED:          0  USEFUL:          0  USELESS:          0
ITLB USEFUL LOAD PREFETCHES:          0 PREFETCH ISSUED TO LOWER LEVEL:          0  ACCURACY: -nan
ITLB TIMELY PREFETCHES:          0 LATE PREFETCHES: 0 DROPPED PREFETCHES: 0
ITLB PREFETCHES SAME FILL-ORIGIN LEVEL: 0 DIFFERENT FILL-ORIGIN LEVEL: 0
ITLB AVERAGE MISS LATENCY: -nan cycles
ITLB RQ	ACCESS:   10519031	FORWARD:          0	MERGED:    2550766	TO_CACHE:    7968265

DTLB TOTAL     ACCESS:    9983352  HIT:    9878975  MISS:     104377  HIT %:    98.9545  MISS %:    1.04551   MPKI: 2.08754
DTLB LOAD TRANSLATION ACCESS:    9983352  HIT:    9878975  MISS:     104377  HIT %:    98.9545  MISS %:    1.04551   MPKI: 2.08754
DTLB PREFETCH  REQUESTED:          0  ISSUED:          0  USEFUL:          0  USELESS:          0
DTLB USEFUL LOAD PREFETCHES:          0 PREFETCH ISSUED TO LOWER LEVEL:          0  ACCURACY: -nan
DTLB TIMELY PREFETCHES:          0 LATE PREFETCHES: 0 DROPPED PREFETCHES: 0
DTLB PREFETCHES SAME FILL-ORIGIN LEVEL: 0 DIFFERENT FILL-ORIGIN LEVEL: 0
DTLB AVERAGE MISS LATENCY: 28.7987 cycles
DTLB RQ	ACCESS:   10736386	FORWARD:          0	MERGED:     746062	TO_CACHE:    9990324

STLB TOTAL     ACCESS:    4125449  HIT:    4060762  MISS:      64687  HIT %:     98.432  MISS %:      1.568   MPKI: 1.29374
STLB LOAD TRANSLATION ACCESS:     104377  HIT:      82584  MISS:      21793  HIT %:    79.1209  MISS %:    20.8791   MPKI: 0.43586
STLB TRANSLATION FROM L1D PREFETCHER ACCESS:    4021072  HIT:    3978178  MISS:      42894  HIT %:    98.9333  MISS %:    1.06673   MPKI: 0.85788
STLB PREFETCH  REQUESTED:          0  ISSUED:          0  USEFUL:      39621  USELESS:       3361
STLB USEFUL LOAD PREFETCHES:      39621 PREFETCH ISSUED TO LOWER LEVEL:          0  ACCURACY: inf
STLB TIMELY PREFETCHES:      39621 LATE PREFETCHES: 830 DROPPED PREFETCHES: 0
STLB PREFETCHES SAME FILL-ORIGIN LEVEL: 0 DIFFERENT FILL-ORIGIN LEVEL: 0
STLB AVERAGE MISS LATENCY: 73.6978 cycles
STLB RQ	ACCESS:   14632537	FORWARD:          0	MERGED:   10505033	TO_CACHE:    4127504

STLB Hit, L1D data hit: 0
STLB Hit, L2C data hit: 0
STLB Hit, LLC data hit: 0
STLB Hit, LLC data miss: 0
STLB STLB hints to L2: 0
L1D TOTAL     ACCESS:   24013785  HIT:   22033129  MISS:    1980656  HIT %:     91.752  MISS %:      8.248   MPKI: 39.6131
L1D LOAD      ACCESS:    8317094  HIT:    7637940  MISS:     679154  HIT %:    91.8342  MISS %:    8.16576   MPKI: 13.5831
L1D RFO       ACCESS:    1776373  HIT:    1696155  MISS:      80218  HIT %:    95.4842  MISS %:    4.51583   MPKI: 1.60436
L1D PREFETCH  ACCESS:   13920318  HIT:   12699034  MISS:    1221284  HIT %:    91.2266  MISS %:    8.77339   MPKI: 24.4257
AGUS PREFETCH L1 MISS: 0
L1D PREFETCH  REQUESTED:   32891540  ISSUED:   29397611  USEFUL:     652975  USELESS:     568249
L1D USEFUL LOAD PREFETCHES:     652975 PREFETCH ISSUED TO LOWER LEVEL:    1240980  ACCURACY: 52.6177
L1D TIMELY PREFETCHES:     652975 LATE PREFETCHES: 19696 DROPPED PREFETCHES: 0
L1D PREFETCHES SAME FILL-ORIGIN LEVEL: 1240980 DIFFERENT FILL-ORIGIN LEVEL: 0
L1D AVERAGE MISS LATENCY: 130.432 cycles
L1D RQ	ACCESS:   12369119	FORWARD:          0	MERGED:    3903225	TO_CACHE:    8458749
L1D WQ	ACCESS:    2328074	FORWARD:       7148	MERGED:      50437	TO_CACHE:    2277637
L1D PQ	ACCESS:   14869451	FORWARD:          0	MERGED:     341288	TO_CACHE:   14528160

L1D UNIQUE REGIONS ACCESSED: 0
L1D REGIONS CONFLICTS: 0
L1D Cross Page Prefetch Requests: 5672285
L1D Same Page Prefetch Requests: 18782769
L1D ROI Sum of L1D PQ occupancy: 228640134
L1D PREFETCHES PUSHED FROM L2C: 0
L1I TOTAL     ACCESS:   10519030  HIT:   10519019  MISS:         11  HIT %:    99.9999  MISS %: 0.000104572   MPKI: 0.00022
L1I LOAD      ACCESS:   10519030  HIT:   10519019  MISS:         11  HIT %:    99.9999  MISS %: 0.000104572   MPKI: 0.00022
L1I PREFETCH  REQUESTED:          0  ISSUED:          0  USEFUL:          0  USELESS:          0
L1I USEFUL LOAD PREFETCHES:          0 PREFETCH ISSUED TO LOWER LEVEL:          0  ACCURACY: -nan
L1I TIMELY PREFETCHES:          0 LATE PREFETCHES: 0 DROPPED PREFETCHES: 0
L1I PREFETCHES SAME FILL-ORIGIN LEVEL: 0 DIFFERENT FILL-ORIGIN LEVEL: 0
L1I AVERAGE MISS LATENCY: 185.727 cycles
L1I RQ	ACCESS:   15944892	FORWARD:          0	MERGED:    5425861	TO_CACHE:   10519031

BTB TOTAL     ACCESS:    8929631  HIT:    8929387  MISS:        244  HIT %:    99.9973  MISS %: 0.00273248   MPKI: 0.00488
BTB BRANCH_DIRECT_JUMP	ACCESS:      38408  HIT:      38365  MISS:         43
BTB BRANCH_INDIRECT	ACCESS:          1  HIT:          0  MISS:          1
BTB BRANCH_CONDITIONAL	ACCESS:    8891015  HIT:    8890916  MISS:         99
BTB BRANCH_DIRECT_CALL	ACCESS:        100  HIT:         60  MISS:         40
BTB BRANCH_INDIRECT_CALL	ACCESS:          3  HIT:          0  MISS:          3
BTB BRANCH_RETURN	ACCESS:        104  HIT:         46  MISS:         58
BTB BRANCH_OTHER ACCESS:          0  HIT:          0  MISS:          0

L2C TOTAL     ACCESS:    2227447  HIT:     993787  MISS:    1233660  HIT %:    44.6155  MISS %:    55.3845   MPKI: 24.6732
L2C LOAD      ACCESS:     659469  HIT:     425307  MISS:     234162  HIT %:    64.4923  MISS %:    35.5077   MPKI: 4.68324
L2C DATA LOAD MPKI: 4.68302
L2C INSTRUCTION LOAD MPKI: 0.00022
L2C RFO       ACCESS:      80218  HIT:       1853  MISS:      78365  HIT %:    2.30996  MISS %:      97.69   MPKI: 1.5673
L2C PREFETCH  ACCESS:    1240969  HIT:     333438  MISS:     907531  HIT %:    26.8692  MISS %:    73.1308   MPKI: 18.1506
AGUS PREFETCH L1 MISS: 0
L2C DATA PREFETCH MPKI: 18.1506
L2C INSTRUCTION PREFETCH MPKI: 0
L2C WRITEBACK ACCESS:     181832  HIT:     181821  MISS:         11  HIT %:     99.994  MISS %: 0.00604954   MPKI: 0.00022
L2C LOAD TRANSLATION ACCESS:      21135  HIT:      16442  MISS:       4693  HIT %:    77.7951  MISS %:    22.2049   MPKI: 0.09386
L2C TRANSLATION FROM L1D PREFETCHER ACCESS:      43824  HIT:      34926  MISS:       8898  HIT %:    79.6961  MISS %:    20.3039   MPKI: 0.17796
L2C PREFETCH  REQUESTED:          0  ISSUED:          0  USEFUL:      13789  USELESS:     902679
L2C USEFUL LOAD PREFETCHES:      13789 PREFETCH ISSUED TO LOWER LEVEL:     907531  ACCURACY: 1.5194
L2C TIMELY PREFETCHES:      13789 LATE PREFETCHES: 0 DROPPED PREFETCHES: 0
L2C PREFETCHES SAME FILL-ORIGIN LEVEL: 0 DIFFERENT FILL-ORIGIN LEVEL: 0
L2C AVERAGE MISS LATENCY: 186.961 cycles
L2C RQ	ACCESS:     804646	FORWARD:          0	MERGED:          0	TO_CACHE:     804646
L2C WQ	ACCESS:     181832	FORWARD:         11	MERGED:          0	TO_CACHE:     181832
L2C PQ	ACCESS:    1240980	FORWARD:          0	MERGED:          0	TO_CACHE:    1240969

L2C Instructions Evicting Data 11
L2C Translations Evicting Data 13390
L2C Data Evicting Data 1206644
L2C Instructions Evicting Instructions 0
L2C Translations Evicting Instructions 0
L2C Data Evicting Instructions 14
L2C Instructions Evicting Translations 0
L2C Translations Evicting Translations 201
L2C Data Evicting Translations 13389
L2C Dense regions hint from L2: 0
PSCL5 TOTAL     ACCESS:      64687  HIT:      64687  MISS:          0  HIT %:        100  MISS %:          0   MPKI: 0
PSCL5 LOAD TRANSLATION ACCESS:      20963  HIT:      20963  MISS:          0  HIT %:        100  MISS %:          0   MPKI: 0
PSCL5 TRANSLATION FROM L1D PREFETCHER ACCESS:      43724  HIT:      43724  MISS:          0  HIT %:        100  MISS %:          0   MPKI: 0
PSCL5 PREFETCH  REQUESTED:          0  ISSUED:          0  USEFUL:          0  USELESS:          0
PSCL5 USEFUL LOAD PREFETCHES:          0 PREFETCH ISSUED TO LOWER LEVEL:          0  ACCURACY: -nan
PSCL5 TIMELY PREFETCHES:          0 LATE PREFETCHES: 0 DROPPED PREFETCHES: 0
PSCL5 PREFETCHES SAME FILL-ORIGIN LEVEL: 0 DIFFERENT FILL-ORIGIN LEVEL: 0

PSCL4 TOTAL     ACCESS:      64687  HIT:      64687  MISS:          0  HIT %:        100  MISS %:          0   MPKI: 0
PSCL4 LOAD TRANSLATION ACCESS:      20963  HIT:      20963  MISS:          0  HIT %:        100  MISS %:          0   MPKI: 0
PSCL4 TRANSLATION FROM L1D PREFETCHER ACCESS:      43724  HIT:      43724  MISS:          0  HIT %:        100  MISS %:          0   MPKI: 0
PSCL4 PREFETCH  REQUESTED:          0  ISSUED:          0  USEFUL:          0  USELESS:          0
PSCL4 USEFUL LOAD PREFETCHES:          0 PREFETCH ISSUED TO LOWER LEVEL:          0  ACCURACY: -nan
PSCL4 TIMELY PREFETCHES:          0 LATE PREFETCHES: 0 DROPPED PREFETCHES: 0
PSCL4 PREFETCHES SAME FILL-ORIGIN LEVEL: 0 DIFFERENT FILL-ORIGIN LEVEL: 0

PSCL3 TOTAL     ACCESS:      64687  HIT:      64687  MISS:          0  HIT %:        100  MISS %:          0   MPKI: 0
PSCL3 LOAD TRANSLATION ACCESS:      20963  HIT:      20963  MISS:          0  HIT %:        100  MISS %:          0   MPKI: 0
PSCL3 TRANSLATION FROM L1D PREFETCHER ACCESS:      43724  HIT:      43724  MISS:          0  HIT %:        100  MISS %:          0   MPKI: 0
PSCL3 PREFETCH  REQUESTED:          0  ISSUED:          0  USEFUL:          0  USELESS:          0
PSCL3 USEFUL LOAD PREFETCHES:          0 PREFETCH ISSUED TO LOWER LEVEL:          0  ACCURACY: -nan
PSCL3 TIMELY PREFETCHES:          0 LATE PREFETCHES: 0 DROPPED PREFETCHES: 0
PSCL3 PREFETCHES SAME FILL-ORIGIN LEVEL: 0 DIFFERENT FILL-ORIGIN LEVEL: 0

PSCL2 TOTAL     ACCESS:      64687  HIT:      64415  MISS:        272  HIT %:    99.5795  MISS %:   0.420486   MPKI: 0.00544
PSCL2 LOAD TRANSLATION ACCESS:      21063  HIT:      20791  MISS:        272  HIT %:    98.7086  MISS %:    1.29136   MPKI: 0.00544
PSCL2 TRANSLATION FROM L1D PREFETCHER ACCESS:      43624  HIT:      43624  MISS:          0  HIT %:        100  MISS %:          0   MPKI: 0
PSCL2 PREFETCH  REQUESTED:          0  ISSUED:          0  USEFUL:          0  USELESS:          0
PSCL2 USEFUL LOAD PREFETCHES:          0 PREFETCH ISSUED TO LOWER LEVEL:          0  ACCURACY: -nan
PSCL2 TIMELY PREFETCHES:          0 LATE PREFETCHES: 0 DROPPED PREFETCHES: 0
PSCL2 PREFETCHES SAME FILL-ORIGIN LEVEL: 0 DIFFERENT FILL-ORIGIN LEVEL: 0

LLC TOTAL     ACCESS:    1408208  HIT:     239899  MISS:    1168309  HIT %:    17.0358  MISS %:    82.9642   MPKI: 23.3662
LLC LOAD      ACCESS:     234162  HIT:      29152  MISS:     205010  HIT %:    12.4495  MISS %:    87.5505   MPKI: 4.1002
LLC RFO       ACCESS:      78365  HIT:       1232  MISS:      77133  HIT %:    1.57213  MISS %:    98.4279   MPKI: 1.54266
LLC PREFETCH  ACCESS:     907531  HIT:      31947  MISS:     875584  HIT %:    3.52021  MISS %:    96.4798   MPKI: 17.5117
AGUS PREFETCH L1 MISS: 0
LLC WRITEBACK ACCESS:     174559  HIT:     173725  MISS:        834  HIT %:    99.5222  MISS %:   0.477775   MPKI: 0.01668
LLC LOAD TRANSLATION ACCESS:       4693  HIT:       1541  MISS:       3152  HIT %:    32.8361  MISS %:    67.1639   MPKI: 0.06304
LLC TRANSLATION FROM L1D PREFETCHER ACCESS:       8898  HIT:       2302  MISS:       6596  HIT %:     25.871  MISS %:     74.129   MPKI: 0.13192
LLC PREFETCH  REQUESTED:          0  ISSUED:          0  USEFUL:       8172  USELESS:     871828
LLC USEFUL LOAD PREFETCHES:       8172 PREFETCH ISSUED TO LOWER LEVEL:     875584  ACCURACY: 0.93332
LLC TIMELY PREFETCHES:       8172 LATE PREFETCHES: 0 DROPPED PREFETCHES: 0
LLC PREFETCHES SAME FILL-ORIGIN LEVEL: 0 DIFFERENT FILL-ORIGIN LEVEL: 0
LLC AVERAGE MISS LATENCY: 165.724 cycles
LLC RQ	ACCESS:     326118	FORWARD:          0	MERGED:          0	TO_CACHE:     326118
LLC WQ	ACCESS:     174559	FORWARD:          0	MERGED:          0	TO_CACHE:     174559
LLC PQ	ACCESS:     907531	FORWARD:          0	MERGED:          0	TO_CACHE:     907531

LLC Dense regions hint to LLC: 0

RAW hits: 71874
Loads Generated: 12440993
Loads sent to L1D: 12369119
Stores Generated: 2328074
Stores sent to L1D: 2328074
Major fault: 0 Minor fault: 27100
Allocated PAGES: 27100
Prefetcher final stats
Training Unit Size: 417
Addr table size: 522125 522660


Triggers: 14272157
Structural address exists: 11098963 77.7665
No Prediction: 3173194 22.2335
Prefetches issued: 24455054 171.348
Useful Prefetches: 652975
Useless Prefetches: 568249
Stream end: 7854749
No translation: 3386350867
%Stream divergence: 563606 3.94899
Stream divergence -- new stream: 0

DRAM Statistics
 CHANNEL 0
 RQ ROW_BUFFER_HIT:     390508  ROW_BUFFER_MISS:     776953
 DBUS_CONGESTED:       1358
 WQ ROW_BUFFER_HIT:      80340  ROW_BUFFER_MISS:      89955  FULL:          0

 AVG_CONGESTED_CYCLE: 4
 All warmup complete: 2
Channel 0 Bank busy for read cycles: 0
Channel 0 Bank busy for write cycles: 0
Channel 0
Rank 0
0banks busy for read cycles: 49144579
0banks busy for write cycles: 49735
1banks busy for read cycles: 43330523
1banks busy for write cycles: 8163735
2banks busy for read cycles: 15718834
2banks busy for write cycles: 2611720
3banks busy for read cycles: 3684138
3banks busy for write cycles: 1040310
4banks busy for read cycles: 1988923
4banks busy for write cycles: 569935
5banks busy for read cycles: 1747760
5banks busy for write cycles: 389335
6banks busy for read cycles: 1835216
6banks busy for write cycles: 330463
7banks busy for read cycles: 1672827
7banks busy for write cycles: 440278
8banks busy for read cycles: 1370596
8banks busy for write cycles: 2755227

CPU 0 Branch Prediction Accuracy: 85.8901% MPKI: 28.8204 Average ROB Occupancy at Mispredict: 9.47322
Branch types
NOT_BRANCH: 39787130 79.5743%
BRANCH_DIRECT_JUMP: 38408 0.076816%
BRANCH_INDIRECT: 1 2e-06%
BRANCH_CONDITIONAL: 10174236 20.3485%
BRANCH_DIRECT_CALL: 100 0.0002%
BRANCH_INDIRECT_CALL: 3 6e-06%
BRANCH_RETURN: 104 0.000208%
BRANCH_OTHER: 0 0%

DRAM PAGES: 1048576
Allocated PAGES: 27100
