
*** ChampSim Multicore Out-of-Order Simulator ***

Warmup Instructions: 50000000
Simulation Instructions: 50000000
Number of CPUs: 1
LLC sets: 2048
LLC ways: 16
Off-chip DRAM Size: 4096 MB Channels: 1 Width: 64-bit Data Rate: 6400 MT/s
CPU 0 runs ./traces/GAP/SUBSET/bfs-8.trace.gz
.gz
CPU 0 Bimodal branch predictor
BTB has LRU replacement policy
ITLB has LRU replacement policy
DTLB has LRU replacement policy
STLB has LRU replacement policy
L1I has LRU replacement policy
L1D has LRU replacement policy
Ideal ISB Prefetching
L2C has LRU replacement policy
LLC has LRU replacement policy
Heartbeat CPU 0 instructions: 10000002 cycles: 2954010 heartbeat IPC: 3.38523 cumulative IPC: 3.38523 (Simulation time: 0 hr 0 min 23 sec) 
Heartbeat CPU 0 instructions: 20000000 cycles: 6061528 heartbeat IPC: 3.218 cumulative IPC: 3.2995 (Simulation time: 0 hr 1 min 10 sec) 
Heartbeat CPU 0 instructions: 30000002 cycles: 9193560 heartbeat IPC: 3.19282 cumulative IPC: 3.26315 (Simulation time: 0 hr 1 min 50 sec) 
Heartbeat CPU 0 instructions: 40000000 cycles: 12427128 heartbeat IPC: 3.09256 cumulative IPC: 3.21876 (Simulation time: 0 hr 2 min 29 sec) 
Heartbeat CPU 0 instructions: 50000002 cycles: 15697802 heartbeat IPC: 3.05747 cumulative IPC: 3.18516 (Simulation time: 0 hr 3 min 1 sec) 

Warmup complete CPU 0 instructions: 50000002 cycles: 15697802 (Simulation time: 0 hr 3 min 1 sec) 

Heartbeat CPU 0 instructions: 60000000 cycles: 37059739 heartbeat IPC: 0.468122 cumulative IPC: 0.468122 (Simulation time: 0 hr 3 min 57 sec) 
Heartbeat CPU 0 instructions: 70000001 cycles: 55965749 heartbeat IPC: 0.528932 cumulative IPC: 0.496673 (Simulation time: 0 hr 4 min 48 sec) 
Heartbeat CPU 0 instructions: 80000000 cycles: 85858888 heartbeat IPC: 0.334525 cumulative IPC: 0.427587 (Simulation time: 0 hr 5 min 42 sec) 
Heartbeat CPU 0 instructions: 90000000 cycles: 120416531 heartbeat IPC: 0.289372 cumulative IPC: 0.381976 (Simulation time: 0 hr 6 min 33 sec) 
Heartbeat CPU 0 instructions: 100000000 cycles: 154991235 heartbeat IPC: 0.289229 cumulative IPC: 0.358954 (Simulation time: 0 hr 7 min 24 sec) 
Finished CPU 0 instructions: 50000000 cycles: 139293442 cumulative IPC: 0.358954 (Simulation time: 0 hr 7 min 24 sec) 

ChampSim completed all CPUs

Region of Interest Statistics

CPU 0 cumulative IPC: 0.358954 instructions: 50000000 cycles: 139293442
ITLB TOTAL     ACCESS:    7967412  HIT:    7967412  MISS:          0  HIT %:        100  MISS %:          0   MPKI: 0
ITLB LOAD TRANSLATION ACCESS:    7967412  HIT:    7967412  MISS:          0  HIT %:        100  MISS %:          0   MPKI: 0
ITLB PREFETCH  REQUESTED:          0  ISSUED:          0  USEFUL:          0  USELESS:          0
ITLB USEFUL LOAD PREFETCHES:          0 PREFETCH ISSUED TO LOWER LEVEL:          0  ACCURACY: -nan
ITLB TIMELY PREFETCHES:          0 LATE PREFETCHES: 0 DROPPED PREFETCHES: 0
ITLB PREFETCHES SAME FILL-ORIGIN LEVEL: 0 DIFFERENT FILL-ORIGIN LEVEL: 0
ITLB AVERAGE MISS LATENCY: -nan cycles
ITLB RQ	ACCESS:   10518224	FORWARD:          0	MERGED:    2550813	TO_CACHE:    7967411

DTLB TOTAL     ACCESS:   10003560  HIT:    9899180  MISS:     104380  HIT %:    98.9566  MISS %:    1.04343   MPKI: 2.0876
DTLB LOAD TRANSLATION ACCESS:   10003560  HIT:    9899180  MISS:     104380  HIT %:    98.9566  MISS %:    1.04343   MPKI: 2.0876
DTLB PREFETCH  REQUESTED:          0  ISSUED:          0  USEFUL:          0  USELESS:          0
DTLB USEFUL LOAD PREFETCHES:          0 PREFETCH ISSUED TO LOWER LEVEL:          0  ACCURACY: -nan
DTLB TIMELY PREFETCHES:          0 LATE PREFETCHES: 0 DROPPED PREFETCHES: 0
DTLB PREFETCHES SAME FILL-ORIGIN LEVEL: 0 DIFFERENT FILL-ORIGIN LEVEL: 0
DTLB AVERAGE MISS LATENCY: 53.4365 cycles
DTLB RQ	ACCESS:   10754006	FORWARD:          0	MERGED:     740982	TO_CACHE:   10013024

STLB TOTAL     ACCESS:     104380  HIT:      47275  MISS:      57105  HIT %:    45.2912  MISS %:    54.7088   MPKI: 1.1421
STLB LOAD TRANSLATION ACCESS:     104380  HIT:      47275  MISS:      57105  HIT %:    45.2912  MISS %:    54.7088   MPKI: 1.1421
STLB PREFETCH  REQUESTED:          0  ISSUED:          0  USEFUL:          0  USELESS:          0
STLB USEFUL LOAD PREFETCHES:          0 PREFETCH ISSUED TO LOWER LEVEL:          0  ACCURACY: -nan
STLB TIMELY PREFETCHES:          0 LATE PREFETCHES: 0 DROPPED PREFETCHES: 0
STLB PREFETCHES SAME FILL-ORIGIN LEVEL: 0 DIFFERENT FILL-ORIGIN LEVEL: 0
STLB AVERAGE MISS LATENCY: 81.1695 cycles
STLB RQ	ACCESS:     104380	FORWARD:          0	MERGED:          0	TO_CACHE:     104380

STLB Hit, L1D data hit: 0
STLB Hit, L2C data hit: 0
STLB Hit, LLC data hit: 0
STLB Hit, LLC data miss: 0
STLB STLB hints to L2: 0
L1D TOTAL     ACCESS:   10125644  HIT:    8760915  MISS:    1364729  HIT %:    86.5221  MISS %:    13.4779   MPKI: 27.2946
L1D LOAD      ACCESS:    8279974  HIT:    6995443  MISS:    1284531  HIT %:    84.4863  MISS %:    15.5137   MPKI: 25.6906
L1D RFO       ACCESS:    1845670  HIT:    1765472  MISS:      80198  HIT %:    95.6548  MISS %:     4.3452   MPKI: 1.60396
L1D PREFETCH  REQUESTED:          0  ISSUED:          0  USEFUL:          0  USELESS:          0
L1D USEFUL LOAD PREFETCHES:          0 PREFETCH ISSUED TO LOWER LEVEL:          0  ACCURACY: -nan
L1D TIMELY PREFETCHES:          0 LATE PREFETCHES: 0 DROPPED PREFETCHES: 0
L1D PREFETCHES SAME FILL-ORIGIN LEVEL: 0 DIFFERENT FILL-ORIGIN LEVEL: 0
L1D AVERAGE MISS LATENCY: 52.6856 cycles
L1D RQ	ACCESS:   12372049	FORWARD:          0	MERGED:    3887148	TO_CACHE:    8478777
L1D WQ	ACCESS:    2328074	FORWARD:       6124	MERGED:      52845	TO_CACHE:    2275229

L1D UNIQUE REGIONS ACCESSED: 0
L1D REGIONS CONFLICTS: 0
L1D Cross Page Prefetch Requests: 0
L1D Same Page Prefetch Requests: 0
L1D ROI Sum of L1D PQ occupancy: 0
L1D PREFETCHES PUSHED FROM L2C: 0
L1I TOTAL     ACCESS:   10518223  HIT:   10518212  MISS:         11  HIT %:    99.9999  MISS %: 0.00010458   MPKI: 0.00022
L1I LOAD      ACCESS:   10518223  HIT:   10518212  MISS:         11  HIT %:    99.9999  MISS %: 0.00010458   MPKI: 0.00022
L1I PREFETCH  REQUESTED:          0  ISSUED:          0  USEFUL:          0  USELESS:          0
L1I USEFUL LOAD PREFETCHES:          0 PREFETCH ISSUED TO LOWER LEVEL:          0  ACCURACY: -nan
L1I TIMELY PREFETCHES:          0 LATE PREFETCHES: 0 DROPPED PREFETCHES: 0
L1I PREFETCHES SAME FILL-ORIGIN LEVEL: 0 DIFFERENT FILL-ORIGIN LEVEL: 0
L1I AVERAGE MISS LATENCY: 194.818 cycles
L1I RQ	ACCESS:   15942838	FORWARD:          0	MERGED:    5424614	TO_CACHE:   10518224

BTB TOTAL     ACCESS:    8929631  HIT:    8929387  MISS:        244  HIT %:    99.9973  MISS %: 0.00273248   MPKI: 0.00488
BTB BRANCH_DIRECT_JUMP	ACCESS:      38408  HIT:      38365  MISS:         43
BTB BRANCH_INDIRECT	ACCESS:          1  HIT:          0  MISS:          1
BTB BRANCH_CONDITIONAL	ACCESS:    8891015  HIT:    8890916  MISS:         99
BTB BRANCH_DIRECT_CALL	ACCESS:        100  HIT:         60  MISS:         40
BTB BRANCH_INDIRECT_CALL	ACCESS:          3  HIT:          0  MISS:          3
BTB BRANCH_RETURN	ACCESS:        104  HIT:         46  MISS:         58
BTB BRANCH_OTHER ACCESS:          0  HIT:          0  MISS:          0

L2C TOTAL     ACCESS:   10008065  HIT:    8680248  MISS:    1327817  HIT %:    86.7325  MISS %:    13.2675   MPKI: 26.5563
L2C LOAD      ACCESS:    1284542  HIT:    1095583  MISS:     188959  HIT %:    85.2898  MISS %:    14.7102   MPKI: 3.77918
L2C DATA LOAD MPKI: 3.77896
L2C INSTRUCTION LOAD MPKI: 0.00022
L2C RFO       ACCESS:      80198  HIT:       1817  MISS:      78381  HIT %:    2.26564  MISS %:    97.7344   MPKI: 1.56762
L2C PREFETCH  ACCESS:    8404395  HIT:    7356217  MISS:    1048178  HIT %:    87.5282  MISS %:    12.4718   MPKI: 20.9636
AGUS PREFETCH L1 MISS: 0
L2C DATA PREFETCH MPKI: 20.9636
L2C INSTRUCTION PREFETCH MPKI: 0
L2C WRITEBACK ACCESS:     181557  HIT:     181528  MISS:         29  HIT %:     99.984  MISS %:  0.0159729   MPKI: 0.00058
L2C LOAD TRANSLATION ACCESS:      57373  HIT:      45103  MISS:      12270  HIT %:    78.6136  MISS %:    21.3864   MPKI: 0.2454
L2C PREFETCH  REQUESTED:    8839551  ISSUED:    8750197  USEFUL:     642443  USELESS:     408198
L2C USEFUL LOAD PREFETCHES:     642443 PREFETCH ISSUED TO LOWER LEVEL:    1063338  ACCURACY: 60.4176
L2C TIMELY PREFETCHES:     642443 LATE PREFETCHES: 15160 DROPPED PREFETCHES: 0
L2C PREFETCHES SAME FILL-ORIGIN LEVEL: 1063338 DIFFERENT FILL-ORIGIN LEVEL: 0
L2C AVERAGE MISS LATENCY: 206.869 cycles
L2C RQ	ACCESS:    1422113	FORWARD:          0	MERGED:          0	TO_CACHE:    1422113
L2C WQ	ACCESS:     181557	FORWARD:          0	MERGED:          0	TO_CACHE:     181557
L2C PQ	ACCESS:    8750197	FORWARD:          0	MERGED:     149198	TO_CACHE:    8600999

L2C Instructions Evicting Data 11
L2C Translations Evicting Data 12117
L2C Data Evicting Data 1303349
L2C Instructions Evicting Instructions 0
L2C Translations Evicting Instructions 0
L2C Data Evicting Instructions 14
L2C Instructions Evicting Translations 0
L2C Translations Evicting Translations 153
L2C Data Evicting Translations 12144
L2C Dense regions hint from L2: 0
PSCL5 TOTAL     ACCESS:      57105  HIT:      57105  MISS:          0  HIT %:        100  MISS %:          0   MPKI: 0
PSCL5 LOAD TRANSLATION ACCESS:      57105  HIT:      57105  MISS:          0  HIT %:        100  MISS %:          0   MPKI: 0
PSCL5 PREFETCH  REQUESTED:          0  ISSUED:          0  USEFUL:          0  USELESS:          0
PSCL5 USEFUL LOAD PREFETCHES:          0 PREFETCH ISSUED TO LOWER LEVEL:          0  ACCURACY: -nan
PSCL5 TIMELY PREFETCHES:          0 LATE PREFETCHES: 0 DROPPED PREFETCHES: 0
PSCL5 PREFETCHES SAME FILL-ORIGIN LEVEL: 0 DIFFERENT FILL-ORIGIN LEVEL: 0

PSCL4 TOTAL     ACCESS:      57105  HIT:      57105  MISS:          0  HIT %:        100  MISS %:          0   MPKI: 0
PSCL4 LOAD TRANSLATION ACCESS:      57105  HIT:      57105  MISS:          0  HIT %:        100  MISS %:          0   MPKI: 0
PSCL4 PREFETCH  REQUESTED:          0  ISSUED:          0  USEFUL:          0  USELESS:          0
PSCL4 USEFUL LOAD PREFETCHES:          0 PREFETCH ISSUED TO LOWER LEVEL:          0  ACCURACY: -nan
PSCL4 TIMELY PREFETCHES:          0 LATE PREFETCHES: 0 DROPPED PREFETCHES: 0
PSCL4 PREFETCHES SAME FILL-ORIGIN LEVEL: 0 DIFFERENT FILL-ORIGIN LEVEL: 0

PSCL3 TOTAL     ACCESS:      57105  HIT:      57105  MISS:          0  HIT %:        100  MISS %:          0   MPKI: 0
PSCL3 LOAD TRANSLATION ACCESS:      57105  HIT:      57105  MISS:          0  HIT %:        100  MISS %:          0   MPKI: 0
PSCL3 PREFETCH  REQUESTED:          0  ISSUED:          0  USEFUL:          0  USELESS:          0
PSCL3 USEFUL LOAD PREFETCHES:          0 PREFETCH ISSUED TO LOWER LEVEL:          0  ACCURACY: -nan
PSCL3 TIMELY PREFETCHES:          0 LATE PREFETCHES: 0 DROPPED PREFETCHES: 0
PSCL3 PREFETCHES SAME FILL-ORIGIN LEVEL: 0 DIFFERENT FILL-ORIGIN LEVEL: 0

PSCL2 TOTAL     ACCESS:      57105  HIT:      56837  MISS:        268  HIT %:    99.5307  MISS %:   0.469311   MPKI: 0.00536
PSCL2 LOAD TRANSLATION ACCESS:      57105  HIT:      56837  MISS:        268  HIT %:    99.5307  MISS %:   0.469311   MPKI: 0.00536
PSCL2 PREFETCH  REQUESTED:          0  ISSUED:          0  USEFUL:          0  USELESS:          0
PSCL2 USEFUL LOAD PREFETCHES:          0 PREFETCH ISSUED TO LOWER LEVEL:          0  ACCURACY: -nan
PSCL2 TIMELY PREFETCHES:          0 LATE PREFETCHES: 0 DROPPED PREFETCHES: 0
PSCL2 PREFETCHES SAME FILL-ORIGIN LEVEL: 0 DIFFERENT FILL-ORIGIN LEVEL: 0

LLC TOTAL     ACCESS:    1500731  HIT:     243137  MISS:    1257594  HIT %:    16.2012  MISS %:    83.7988   MPKI: 25.1519
LLC LOAD      ACCESS:     173799  HIT:      14892  MISS:     158907  HIT %:    8.56852  MISS %:    91.4315   MPKI: 3.17814
LLC RFO       ACCESS:      78381  HIT:       1092  MISS:      77289  HIT %:    1.39319  MISS %:    98.6068   MPKI: 1.54578
LLC PREFETCH  ACCESS:    1063338  HIT:      51188  MISS:    1012150  HIT %:     4.8139  MISS %:    95.1861   MPKI: 20.243
AGUS PREFETCH L1 MISS: 0
LLC WRITEBACK ACCESS:     172943  HIT:     172878  MISS:         65  HIT %:    99.9624  MISS %:  0.0375846   MPKI: 0.0013
LLC LOAD TRANSLATION ACCESS:      12270  HIT:       3087  MISS:       9183  HIT %:    25.1589  MISS %:    74.8411   MPKI: 0.18366
LLC PREFETCH  REQUESTED:          0  ISSUED:          0  USEFUL:       7496  USELESS:    1003931
LLC USEFUL LOAD PREFETCHES:       7496 PREFETCH ISSUED TO LOWER LEVEL:    1012150  ACCURACY: 0.740602
LLC TIMELY PREFETCHES:       7496 LATE PREFETCHES: 0 DROPPED PREFETCHES: 0
LLC PREFETCHES SAME FILL-ORIGIN LEVEL: 0 DIFFERENT FILL-ORIGIN LEVEL: 0
LLC AVERAGE MISS LATENCY: 186.73 cycles
LLC RQ	ACCESS:     264450	FORWARD:          0	MERGED:          0	TO_CACHE:     264450
LLC WQ	ACCESS:     172943	FORWARD:          0	MERGED:          0	TO_CACHE:     172943
LLC PQ	ACCESS:    1063338	FORWARD:          0	MERGED:          0	TO_CACHE:    1063338

LLC Dense regions hint to LLC: 0

RAW hits: 68944
Loads Generated: 12440993
Loads sent to L1D: 12372049
Stores Generated: 2328074
Stores sent to L1D: 2328074
Major fault: 0 Minor fault: 27100
Allocated PAGES: 27100
Prefetcher final stats
Training Unit Size: 123
Addr table size: 519176 519176


Triggers: 2720997
Structural address exists: 2181718 80.1808
No Prediction: 539279 19.8192
Prefetches issued: 14268832 524.397
Useful Prefetches: 642443
Useless Prefetches: 408198
Stream end: 311490
No translation: 305792545
%Stream divergence: 79584 2.92481
Stream divergence -- new stream: 0

DRAM Statistics
 CHANNEL 0
 RQ ROW_BUFFER_HIT:     462048  ROW_BUFFER_MISS:     795470
 DBUS_CONGESTED:       1494
 WQ ROW_BUFFER_HIT:      77570  ROW_BUFFER_MISS:      90825  FULL:          0

 AVG_CONGESTED_CYCLE: 4
 All warmup complete: 2
Channel 0 Bank busy for read cycles: 0
Channel 0 Bank busy for write cycles: 0
Channel 0
Rank 0
0banks busy for read cycles: 48737970
0banks busy for write cycles: 52123
1banks busy for read cycles: 46217546
1banks busy for write cycles: 8879057
2banks busy for read cycles: 15201382
2banks busy for write cycles: 2800584
3banks busy for read cycles: 3307357
3banks busy for write cycles: 1143843
4banks busy for read cycles: 1750805
4banks busy for write cycles: 618248
5banks busy for read cycles: 1517916
5banks busy for write cycles: 431560
6banks busy for read cycles: 1528414
6banks busy for write cycles: 365796
7banks busy for read cycles: 1726170
7banks busy for write cycles: 448062
8banks busy for read cycles: 2533156
8banks busy for write cycles: 2033454

CPU 0 Branch Prediction Accuracy: 85.8901% MPKI: 28.8204 Average ROB Occupancy at Mispredict: 9.5283
Branch types
NOT_BRANCH: 39787130 79.5743%
BRANCH_DIRECT_JUMP: 38408 0.076816%
BRANCH_INDIRECT: 1 2e-06%
BRANCH_CONDITIONAL: 10174236 20.3485%
BRANCH_DIRECT_CALL: 100 0.0002%
BRANCH_INDIRECT_CALL: 3 6e-06%
BRANCH_RETURN: 104 0.000208%
BRANCH_OTHER: 0 0%

DRAM PAGES: 1048576
Allocated PAGES: 27100
