
*** ChampSim Multicore Out-of-Order Simulator ***

Warmup Instructions: 50000000
Simulation Instructions: 50000000
Number of CPUs: 1
LLC sets: 2048
LLC ways: 16
Off-chip DRAM Size: 4096 MB Channels: 1 Width: 64-bit Data Rate: 6400 MT/s
CPU 0 runs ./traces/GAP/SUBSET/bfs-8.trace.gz
.gz
CPU 0 Bimodal branch predictor
BTB has LRU replacement policy
ITLB has LRU replacement policy
DTLB has LRU replacement policy
STLB has LRU replacement policy
L1I has LRU replacement policy
Ideal ISB Prefetching
L1D has LRU replacement policy
L2C has LRU replacement policy
LLC has LRU replacement policy
Heartbeat CPU 0 instructions: 10000002 cycles: 2954010 heartbeat IPC: 3.38523 cumulative IPC: 3.38523 (Simulation time: 0 hr 1 min 15 sec) 
Heartbeat CPU 0 instructions: 20000000 cycles: 6062005 heartbeat IPC: 3.21751 cumulative IPC: 3.29924 (Simulation time: 0 hr 5 min 50 sec) 
Heartbeat CPU 0 instructions: 30000002 cycles: 9197198 heartbeat IPC: 3.1896 cumulative IPC: 3.26186 (Simulation time: 0 hr 10 min 15 sec) 
Heartbeat CPU 0 instructions: 40000000 cycles: 12432725 heartbeat IPC: 3.09069 cumulative IPC: 3.21732 (Simulation time: 0 hr 13 min 41 sec) 
Heartbeat CPU 0 instructions: 50000002 cycles: 15703402 heartbeat IPC: 3.05747 cumulative IPC: 3.18402 (Simulation time: 0 hr 17 min 10 sec) 

Warmup complete CPU 0 instructions: 50000002 cycles: 15703402 (Simulation time: 0 hr 17 min 10 sec) 

Heartbeat CPU 0 instructions: 60000000 cycles: 36462057 heartbeat IPC: 0.481727 cumulative IPC: 0.481727 (Simulation time: 0 hr 20 min 54 sec) 
Heartbeat CPU 0 instructions: 70000001 cycles: 54709708 heartbeat IPC: 0.548016 cumulative IPC: 0.512738 (Simulation time: 0 hr 22 min 10 sec) 
Heartbeat CPU 0 instructions: 80000000 cycles: 83478868 heartbeat IPC: 0.347594 cumulative IPC: 0.442638 (Simulation time: 0 hr 25 min 18 sec) 
Heartbeat CPU 0 instructions: 90000000 cycles: 117142987 heartbeat IPC: 0.297052 cumulative IPC: 0.394323 (Simulation time: 0 hr 31 min 32 sec) 
Heartbeat CPU 0 instructions: 100000000 cycles: 150825268 heartbeat IPC: 0.296892 cumulative IPC: 0.370036 (Simulation time: 0 hr 37 min 33 sec) 
Finished CPU 0 instructions: 50000000 cycles: 135121875 cumulative IPC: 0.370036 (Simulation time: 0 hr 37 min 33 sec) 

ChampSim completed all CPUs

Region of Interest Statistics

CPU 0 cumulative IPC: 0.370036 instructions: 50000000 cycles: 135121875
ITLB TOTAL     ACCESS:    7968074  HIT:    7968074  MISS:          0  HIT %:        100  MISS %:          0   MPKI: 0
ITLB LOAD TRANSLATION ACCESS:    7968074  HIT:    7968074  MISS:          0  HIT %:        100  MISS %:          0   MPKI: 0
ITLB PREFETCH  REQUESTED:          0  ISSUED:          0  USEFUL:          0  USELESS:          0
ITLB USEFUL LOAD PREFETCHES:          0 PREFETCH ISSUED TO LOWER LEVEL:          0  ACCURACY: -nan
ITLB TIMELY PREFETCHES:          0 LATE PREFETCHES: 0 DROPPED PREFETCHES: 0
ITLB PREFETCHES SAME FILL-ORIGIN LEVEL: 0 DIFFERENT FILL-ORIGIN LEVEL: 0
ITLB AVERAGE MISS LATENCY: -nan cycles
ITLB RQ	ACCESS:   10518845	FORWARD:          0	MERGED:    2550772	TO_CACHE:    7968073

DTLB TOTAL     ACCESS:    9990741  HIT:    9886363  MISS:     104378  HIT %:    98.9553  MISS %:    1.04475   MPKI: 2.08756
DTLB LOAD TRANSLATION ACCESS:    9990741  HIT:    9886363  MISS:     104378  HIT %:    98.9553  MISS %:    1.04475   MPKI: 2.08756
DTLB PREFETCH  REQUESTED:          0  ISSUED:          0  USEFUL:          0  USELESS:          0
DTLB USEFUL LOAD PREFETCHES:          0 PREFETCH ISSUED TO LOWER LEVEL:          0  ACCURACY: -nan
DTLB TIMELY PREFETCHES:          0 LATE PREFETCHES: 0 DROPPED PREFETCHES: 0
DTLB PREFETCHES SAME FILL-ORIGIN LEVEL: 0 DIFFERENT FILL-ORIGIN LEVEL: 0
DTLB AVERAGE MISS LATENCY: 27.5599 cycles
DTLB RQ	ACCESS:   10742935	FORWARD:          0	MERGED:     745410	TO_CACHE:    9997525

STLB TOTAL     ACCESS:    5008197  HIT:    4943318  MISS:      64879  HIT %:    98.7045  MISS %:    1.29546   MPKI: 1.29758
STLB LOAD TRANSLATION ACCESS:     104378  HIT:      84550  MISS:      19828  HIT %:    81.0037  MISS %:    18.9963   MPKI: 0.39656
STLB TRANSLATION FROM L1D PREFETCHER ACCESS:    4903819  HIT:    4858768  MISS:      45051  HIT %:    99.0813  MISS %:   0.918692   MPKI: 0.90102
STLB PREFETCH  REQUESTED:          0  ISSUED:          0  USEFUL:      41886  USELESS:       3272
STLB USEFUL LOAD PREFETCHES:      41886 PREFETCH ISSUED TO LOWER LEVEL:          0  ACCURACY: inf
STLB TIMELY PREFETCHES:      41886 LATE PREFETCHES: 719 DROPPED PREFETCHES: 0
STLB PREFETCHES SAME FILL-ORIGIN LEVEL: 0 DIFFERENT FILL-ORIGIN LEVEL: 0
STLB AVERAGE MISS LATENCY: 86.9858 cycles
STLB RQ	ACCESS:   15801740	FORWARD:          0	MERGED:   10791606	TO_CACHE:    5010134

STLB Hit, L1D data hit: 0
STLB Hit, L2C data hit: 0
STLB Hit, LLC data hit: 0
STLB Hit, LLC data miss: 0
STLB STLB hints to L2: 0
L1D TOTAL     ACCESS:   25165302  HIT:   23106781  MISS:    2058521  HIT %:      91.82  MISS %:       8.18   MPKI: 41.1704
L1D LOAD      ACCESS:    8341157  HIT:    7670668  MISS:     670489  HIT %:    91.9617  MISS %:    8.03832   MPKI: 13.4098
L1D RFO       ACCESS:    1774832  HIT:    1694603  MISS:      80229  HIT %:    95.4796  MISS %:    4.52037   MPKI: 1.60458
L1D PREFETCH  ACCESS:   15049313  HIT:   13741510  MISS:    1307803  HIT %:    91.3099  MISS %:    8.69012   MPKI: 26.1561
AGUS PREFETCH L1 MISS: 0
L1D PREFETCH  REQUESTED:   35872755  ISSUED:   31802783  USEFUL:     676280  USELESS:     631426
L1D USEFUL LOAD PREFETCHES:     676280 PREFETCH ISSUED TO LOWER LEVEL:    1323725  ACCURACY: 51.0892
L1D TIMELY PREFETCHES:     676280 LATE PREFETCHES: 15922 DROPPED PREFETCHES: 0
L1D PREFETCHES SAME FILL-ORIGIN LEVEL: 1323725 DIFFERENT FILL-ORIGIN LEVEL: 0
L1D AVERAGE MISS LATENCY: 128.791 cycles
L1D RQ	ACCESS:   12368387	FORWARD:          0	MERGED:    3895848	TO_CACHE:    8465376
L1D WQ	ACCESS:    2328074	FORWARD:       7164	MERGED:      50515	TO_CACHE:    2277559
L1D PQ	ACCESS:   16105421	FORWARD:          0	MERGED:     408058	TO_CACHE:   15697362

L1D UNIQUE REGIONS ACCESSED: 0
L1D REGIONS CONFLICTS: 0
L1D Cross Page Prefetch Requests: 6526027
L1D Same Page Prefetch Requests: 19477690
L1D ROI Sum of L1D PQ occupancy: 247432442
L1D PREFETCHES PUSHED FROM L2C: 0
L1I TOTAL     ACCESS:   10518844  HIT:   10518833  MISS:         11  HIT %:    99.9999  MISS %: 0.000104574   MPKI: 0.00022
L1I LOAD      ACCESS:   10518844  HIT:   10518833  MISS:         11  HIT %:    99.9999  MISS %: 0.000104574   MPKI: 0.00022
L1I PREFETCH  REQUESTED:          0  ISSUED:          0  USEFUL:          0  USELESS:          0
L1I USEFUL LOAD PREFETCHES:          0 PREFETCH ISSUED TO LOWER LEVEL:          0  ACCURACY: -nan
L1I TIMELY PREFETCHES:          0 LATE PREFETCHES: 0 DROPPED PREFETCHES: 0
L1I PREFETCHES SAME FILL-ORIGIN LEVEL: 0 DIFFERENT FILL-ORIGIN LEVEL: 0
L1I AVERAGE MISS LATENCY: 205.455 cycles
L1I RQ	ACCESS:   15944423	FORWARD:          0	MERGED:    5425578	TO_CACHE:   10518845

BTB TOTAL     ACCESS:    8929631  HIT:    8929387  MISS:        244  HIT %:    99.9973  MISS %: 0.00273248   MPKI: 0.00488
BTB BRANCH_DIRECT_JUMP	ACCESS:      38408  HIT:      38365  MISS:         43
BTB BRANCH_INDIRECT	ACCESS:          1  HIT:          0  MISS:          1
BTB BRANCH_CONDITIONAL	ACCESS:    8891015  HIT:    8890916  MISS:         99
BTB BRANCH_DIRECT_CALL	ACCESS:        100  HIT:         60  MISS:         40
BTB BRANCH_INDIRECT_CALL	ACCESS:          3  HIT:          0  MISS:          3
BTB BRANCH_RETURN	ACCESS:        104  HIT:         46  MISS:         58
BTB BRANCH_OTHER ACCESS:          0  HIT:          0  MISS:          0

L2C TOTAL     ACCESS:    2305454  HIT:    1054303  MISS:    1251151  HIT %:    45.7308  MISS %:    54.2692   MPKI: 25.023
L2C LOAD      ACCESS:     654578  HIT:     438110  MISS:     216468  HIT %:    66.9301  MISS %:    33.0699   MPKI: 4.32936
L2C DATA LOAD MPKI: 4.32914
L2C INSTRUCTION LOAD MPKI: 0.00022
L2C RFO       ACCESS:      80228  HIT:       1845  MISS:      78383  HIT %:     2.2997  MISS %:    97.7003   MPKI: 1.56766
L2C PREFETCH  ACCESS:    1323707  HIT:     381112  MISS:     942595  HIT %:    28.7913  MISS %:    71.2087   MPKI: 18.8519
AGUS PREFETCH L1 MISS: 0
L2C DATA PREFETCH MPKI: 18.8519
L2C INSTRUCTION PREFETCH MPKI: 0
L2C WRITEBACK ACCESS:     181791  HIT:     181787  MISS:          4  HIT %:    99.9978  MISS %: 0.00220033   MPKI: 8e-05
L2C LOAD TRANSLATION ACCESS:      19262  HIT:      14894  MISS:       4368  HIT %:    77.3232  MISS %:    22.6768   MPKI: 0.08736
L2C TRANSLATION FROM L1D PREFETCHER ACCESS:      45888  HIT:      36555  MISS:       9333  HIT %:    79.6613  MISS %:    20.3387   MPKI: 0.18666
L2C PREFETCH  REQUESTED:          0  ISSUED:          0  USEFUL:      16871  USELESS:     935025
L2C USEFUL LOAD PREFETCHES:      16871 PREFETCH ISSUED TO LOWER LEVEL:     942595  ACCURACY: 1.78985
L2C TIMELY PREFETCHES:      16871 LATE PREFETCHES: 0 DROPPED PREFETCHES: 0
L2C PREFETCHES SAME FILL-ORIGIN LEVEL: 0 DIFFERENT FILL-ORIGIN LEVEL: 0
L2C AVERAGE MISS LATENCY: 188.869 cycles
L2C RQ	ACCESS:     799957	FORWARD:          0	MERGED:          0	TO_CACHE:     799956
L2C WQ	ACCESS:     181791	FORWARD:         19	MERGED:          0	TO_CACHE:     181791
L2C PQ	ACCESS:    1323725	FORWARD:          0	MERGED:          0	TO_CACHE:    1323707

L2C Instructions Evicting Data 11
L2C Translations Evicting Data 13518
L2C Data Evicting Data 1223886
L2C Instructions Evicting Instructions 0
L2C Translations Evicting Instructions 0
L2C Data Evicting Instructions 14
L2C Instructions Evicting Translations 0
L2C Translations Evicting Translations 183
L2C Data Evicting Translations 13535
L2C Dense regions hint from L2: 0
PSCL5 TOTAL     ACCESS:      64879  HIT:      64879  MISS:          0  HIT %:        100  MISS %:          0   MPKI: 0
PSCL5 LOAD TRANSLATION ACCESS:      19109  HIT:      19109  MISS:          0  HIT %:        100  MISS %:          0   MPKI: 0
PSCL5 TRANSLATION FROM L1D PREFETCHER ACCESS:      45770  HIT:      45770  MISS:          0  HIT %:        100  MISS %:          0   MPKI: 0
PSCL5 PREFETCH  REQUESTED:          0  ISSUED:          0  USEFUL:          0  USELESS:          0
PSCL5 USEFUL LOAD PREFETCHES:          0 PREFETCH ISSUED TO LOWER LEVEL:          0  ACCURACY: -nan
PSCL5 TIMELY PREFETCHES:          0 LATE PREFETCHES: 0 DROPPED PREFETCHES: 0
PSCL5 PREFETCHES SAME FILL-ORIGIN LEVEL: 0 DIFFERENT FILL-ORIGIN LEVEL: 0

PSCL4 TOTAL     ACCESS:      64879  HIT:      64879  MISS:          0  HIT %:        100  MISS %:          0   MPKI: 0
PSCL4 LOAD TRANSLATION ACCESS:      19109  HIT:      19109  MISS:          0  HIT %:        100  MISS %:          0   MPKI: 0
PSCL4 TRANSLATION FROM L1D PREFETCHER ACCESS:      45770  HIT:      45770  MISS:          0  HIT %:        100  MISS %:          0   MPKI: 0
PSCL4 PREFETCH  REQUESTED:          0  ISSUED:          0  USEFUL:          0  USELESS:          0
PSCL4 USEFUL LOAD PREFETCHES:          0 PREFETCH ISSUED TO LOWER LEVEL:          0  ACCURACY: -nan
PSCL4 TIMELY PREFETCHES:          0 LATE PREFETCHES: 0 DROPPED PREFETCHES: 0
PSCL4 PREFETCHES SAME FILL-ORIGIN LEVEL: 0 DIFFERENT FILL-ORIGIN LEVEL: 0

PSCL3 TOTAL     ACCESS:      64879  HIT:      64879  MISS:          0  HIT %:        100  MISS %:          0   MPKI: 0
PSCL3 LOAD TRANSLATION ACCESS:      19109  HIT:      19109  MISS:          0  HIT %:        100  MISS %:          0   MPKI: 0
PSCL3 TRANSLATION FROM L1D PREFETCHER ACCESS:      45770  HIT:      45770  MISS:          0  HIT %:        100  MISS %:          0   MPKI: 0
PSCL3 PREFETCH  REQUESTED:          0  ISSUED:          0  USEFUL:          0  USELESS:          0
PSCL3 USEFUL LOAD PREFETCHES:          0 PREFETCH ISSUED TO LOWER LEVEL:          0  ACCURACY: -nan
PSCL3 TIMELY PREFETCHES:          0 LATE PREFETCHES: 0 DROPPED PREFETCHES: 0
PSCL3 PREFETCHES SAME FILL-ORIGIN LEVEL: 0 DIFFERENT FILL-ORIGIN LEVEL: 0

PSCL2 TOTAL     ACCESS:      64879  HIT:      64608  MISS:        271  HIT %:    99.5823  MISS %:   0.417701   MPKI: 0.00542
PSCL2 LOAD TRANSLATION ACCESS:      19227  HIT:      18956  MISS:        271  HIT %:    98.5905  MISS %:    1.40948   MPKI: 0.00542
PSCL2 TRANSLATION FROM L1D PREFETCHER ACCESS:      45652  HIT:      45652  MISS:          0  HIT %:        100  MISS %:          0   MPKI: 0
PSCL2 PREFETCH  REQUESTED:          0  ISSUED:          0  USEFUL:          0  USELESS:          0
PSCL2 USEFUL LOAD PREFETCHES:          0 PREFETCH ISSUED TO LOWER LEVEL:          0  ACCURACY: -nan
PSCL2 TIMELY PREFETCHES:          0 LATE PREFETCHES: 0 DROPPED PREFETCHES: 0
PSCL2 PREFETCHES SAME FILL-ORIGIN LEVEL: 0 DIFFERENT FILL-ORIGIN LEVEL: 0

LLC TOTAL     ACCESS:    1425718  HIT:     243132  MISS:    1182586  HIT %:    17.0533  MISS %:    82.9467   MPKI: 23.6517
LLC LOAD      ACCESS:     216468  HIT:      27981  MISS:     188487  HIT %:    12.9262  MISS %:    87.0738   MPKI: 3.76974
LLC RFO       ACCESS:      78383  HIT:       1192  MISS:      77191  HIT %:    1.52074  MISS %:    98.4793   MPKI: 1.54382
LLC PREFETCH  ACCESS:     942595  HIT:      36365  MISS:     906230  HIT %:    3.85797  MISS %:     96.142   MPKI: 18.1246
AGUS PREFETCH L1 MISS: 0
LLC WRITEBACK ACCESS:     174571  HIT:     173700  MISS:        871  HIT %:    99.5011  MISS %:   0.498937   MPKI: 0.01742
LLC LOAD TRANSLATION ACCESS:       4368  HIT:       1616  MISS:       2752  HIT %:    36.9963  MISS %:    63.0037   MPKI: 0.05504
LLC TRANSLATION FROM L1D PREFETCHER ACCESS:       9333  HIT:       2278  MISS:       7055  HIT %:     24.408  MISS %:     75.592   MPKI: 0.1411
LLC PREFETCH  REQUESTED:          0  ISSUED:          0  USEFUL:       8099  USELESS:     902823
LLC USEFUL LOAD PREFETCHES:       8099 PREFETCH ISSUED TO LOWER LEVEL:     906230  ACCURACY: 0.893702
LLC TIMELY PREFETCHES:       8099 LATE PREFETCHES: 0 DROPPED PREFETCHES: 0
LLC PREFETCHES SAME FILL-ORIGIN LEVEL: 0 DIFFERENT FILL-ORIGIN LEVEL: 0
LLC AVERAGE MISS LATENCY: 168.063 cycles
LLC RQ	ACCESS:     308552	FORWARD:          0	MERGED:          0	TO_CACHE:     308552
LLC WQ	ACCESS:     174571	FORWARD:          0	MERGED:          0	TO_CACHE:     174571
LLC PQ	ACCESS:     942595	FORWARD:          0	MERGED:          0	TO_CACHE:     942595

LLC Dense regions hint to LLC: 0

RAW hits: 72606
Loads Generated: 12440993
Loads sent to L1D: 12368387
Stores Generated: 2328074
Stores sent to L1D: 2328074
Major fault: 0 Minor fault: 27100
Allocated PAGES: 27100
Prefetcher final stats
Training Unit Size: 150
Addr table size: 519340 519342


Triggers: 14268795
Structural address exists: 10042313 70.3795
No Prediction: 4226482 29.6205
Prefetches issued: 26003717 182.242
Useful Prefetches: 676280
Useless Prefetches: 631426
Stream end: 6500655
No translation: 1928605485
%Stream divergence: 331538 2.32352
Stream divergence -- new stream: 0

DRAM Statistics
 CHANNEL 0
 RQ ROW_BUFFER_HIT:     390041  ROW_BUFFER_MISS:     791663
 DBUS_CONGESTED:       1461
 WQ ROW_BUFFER_HIT:      79335  ROW_BUFFER_MISS:      90971  FULL:          0

 AVG_CONGESTED_CYCLE: 4
 All warmup complete: 2
Channel 0 Bank busy for read cycles: 0
Channel 0 Bank busy for write cycles: 0
Channel 0
Rank 0
0banks busy for read cycles: 45250213
0banks busy for write cycles: 49606
1banks busy for read cycles: 44154308
1banks busy for write cycles: 8256076
2banks busy for read cycles: 17003969
2banks busy for write cycles: 2635240
3banks busy for read cycles: 3969761
3banks busy for write cycles: 1057424
4banks busy for read cycles: 1936910
4banks busy for write cycles: 557064
5banks busy for read cycles: 1631037
5banks busy for write cycles: 379148
6banks busy for read cycles: 1735321
6banks busy for write cycles: 332562
7banks busy for read cycles: 1625164
7banks busy for write cycles: 468610
8banks busy for read cycles: 1332842
8banks busy for write cycles: 2746621

CPU 0 Branch Prediction Accuracy: 85.8901% MPKI: 28.8204 Average ROB Occupancy at Mispredict: 9.46753
Branch types
NOT_BRANCH: 39787130 79.5743%
BRANCH_DIRECT_JUMP: 38408 0.076816%
BRANCH_INDIRECT: 1 2e-06%
BRANCH_CONDITIONAL: 10174236 20.3485%
BRANCH_DIRECT_CALL: 100 0.0002%
BRANCH_INDIRECT_CALL: 3 6e-06%
BRANCH_RETURN: 104 0.000208%
BRANCH_OTHER: 0 0%

DRAM PAGES: 1048576
Allocated PAGES: 27100
