
*** ChampSim Multicore Out-of-Order Simulator ***

Warmup Instructions: 50000000
Simulation Instructions: 50000000
Number of CPUs: 1
LLC sets: 2048
LLC ways: 16
Off-chip DRAM Size: 4096 MB Channels: 1 Width: 64-bit Data Rate: 6400 MT/s
CPU 0 runs ./traces/GAP/SUBSET/cc-5.trace.gz
.gz
CPU 0 Bimodal branch predictor
BTB has LRU replacement policy
ITLB has LRU replacement policy
DTLB has LRU replacement policy
STLB has LRU replacement policy
L1I has LRU replacement policy
L1D has LRU replacement policy
Ideal ISB Prefetching
L2C has LRU replacement policy
LLC has LRU replacement policy
Heartbeat CPU 0 instructions: 10000003 cycles: 3087542 heartbeat IPC: 3.23882 cumulative IPC: 3.23882 (Simulation time: 0 hr 1 min 48 sec) 
Heartbeat CPU 0 instructions: 20000000 cycles: 6154940 heartbeat IPC: 3.26009 cumulative IPC: 3.24942 (Simulation time: 0 hr 4 min 29 sec) 
Heartbeat CPU 0 instructions: 30000001 cycles: 9231141 heartbeat IPC: 3.25076 cumulative IPC: 3.24987 (Simulation time: 0 hr 7 min 16 sec) 
Heartbeat CPU 0 instructions: 40000000 cycles: 12310516 heartbeat IPC: 3.24741 cumulative IPC: 3.24925 (Simulation time: 0 hr 10 min 8 sec) 
Heartbeat CPU 0 instructions: 50000000 cycles: 15391011 heartbeat IPC: 3.24623 cumulative IPC: 3.24865 (Simulation time: 0 hr 13 min 2 sec) 

Warmup complete CPU 0 instructions: 50000004 cycles: 15391012 (Simulation time: 0 hr 13 min 2 sec) 

Heartbeat CPU 0 instructions: 60000000 cycles: 63803729 heartbeat IPC: 0.206557 cumulative IPC: 0.206557 (Simulation time: 0 hr 16 min 20 sec) 
Heartbeat CPU 0 instructions: 70000002 cycles: 110302055 heartbeat IPC: 0.215062 cumulative IPC: 0.210724 (Simulation time: 0 hr 19 min 40 sec) 
Heartbeat CPU 0 instructions: 80000000 cycles: 157122561 heartbeat IPC: 0.213582 cumulative IPC: 0.211668 (Simulation time: 0 hr 23 min 6 sec) 
Heartbeat CPU 0 instructions: 90000000 cycles: 204747123 heartbeat IPC: 0.209976 cumulative IPC: 0.211242 (Simulation time: 0 hr 26 min 32 sec) 
Heartbeat CPU 0 instructions: 100000000 cycles: 251127579 heartbeat IPC: 0.215608 cumulative IPC: 0.212101 (Simulation time: 0 hr 30 min 1 sec) 
Finished CPU 0 instructions: 50000000 cycles: 235736594 cumulative IPC: 0.212101 (Simulation time: 0 hr 30 min 1 sec) 

ChampSim completed all CPUs

Region of Interest Statistics

CPU 0 cumulative IPC: 0.212101 instructions: 50000000 cycles: 235736594
ITLB TOTAL     ACCESS:    7788647  HIT:    7788647  MISS:          0  HIT %:        100  MISS %:          0   MPKI: 0
ITLB LOAD TRANSLATION ACCESS:    7788647  HIT:    7788647  MISS:          0  HIT %:        100  MISS %:          0   MPKI: 0
ITLB PREFETCH  REQUESTED:          0  ISSUED:          0  USEFUL:          0  USELESS:          0
ITLB USEFUL LOAD PREFETCHES:          0 PREFETCH ISSUED TO LOWER LEVEL:          0  ACCURACY: -nan
ITLB TIMELY PREFETCHES:          0 LATE PREFETCHES: 0 DROPPED PREFETCHES: 0
ITLB PREFETCHES SAME FILL-ORIGIN LEVEL: 0 DIFFERENT FILL-ORIGIN LEVEL: 0
ITLB AVERAGE MISS LATENCY: -nan cycles
ITLB RQ	ACCESS:    7897152	FORWARD:          0	MERGED:     108506	TO_CACHE:    7788646

DTLB TOTAL     ACCESS:    9571708  HIT:    7186972  MISS:    2384736  HIT %:    75.0856  MISS %:    24.9144   MPKI: 47.6947
DTLB LOAD TRANSLATION ACCESS:    9571708  HIT:    7186972  MISS:    2384736  HIT %:    75.0856  MISS %:    24.9144   MPKI: 47.6947
DTLB PREFETCH  REQUESTED:          0  ISSUED:          0  USEFUL:          0  USELESS:          0
DTLB USEFUL LOAD PREFETCHES:          0 PREFETCH ISSUED TO LOWER LEVEL:          0  ACCURACY: -nan
DTLB TIMELY PREFETCHES:          0 LATE PREFETCHES: 0 DROPPED PREFETCHES: 0
DTLB PREFETCHES SAME FILL-ORIGIN LEVEL: 0 DIFFERENT FILL-ORIGIN LEVEL: 0
DTLB AVERAGE MISS LATENCY: 9.76437 cycles
DTLB RQ	ACCESS:   10182770	FORWARD:          0	MERGED:     596635	TO_CACHE:    9586135

STLB TOTAL     ACCESS:    2384736  HIT:    2381191  MISS:       3545  HIT %:    99.8513  MISS %:   0.148654   MPKI: 0.0709
STLB LOAD TRANSLATION ACCESS:    2384736  HIT:    2381191  MISS:       3545  HIT %:    99.8513  MISS %:   0.148654   MPKI: 0.0709
STLB PREFETCH  REQUESTED:          0  ISSUED:          0  USEFUL:          0  USELESS:          0
STLB USEFUL LOAD PREFETCHES:          0 PREFETCH ISSUED TO LOWER LEVEL:          0  ACCURACY: -nan
STLB TIMELY PREFETCHES:          0 LATE PREFETCHES: 0 DROPPED PREFETCHES: 0
STLB PREFETCHES SAME FILL-ORIGIN LEVEL: 0 DIFFERENT FILL-ORIGIN LEVEL: 0
STLB AVERAGE MISS LATENCY: 139.27 cycles
STLB RQ	ACCESS:    2384736	FORWARD:          0	MERGED:          0	TO_CACHE:    2384736

STLB Hit, L1D data hit: 0
STLB Hit, L2C data hit: 0
STLB Hit, LLC data hit: 0
STLB Hit, LLC data miss: 0
STLB STLB hints to L2: 0
L1D TOTAL     ACCESS:    9911376  HIT:    6273184  MISS:    3638192  HIT %:    63.2928  MISS %:    36.7072   MPKI: 72.7638
L1D LOAD      ACCESS:    9799558  HIT:    6161366  MISS:    3638192  HIT %:    62.8739  MISS %:    37.1261   MPKI: 72.7638
L1D RFO       ACCESS:     111818  HIT:     111818  MISS:          0  HIT %:        100  MISS %:          0   MPKI: 0
L1D PREFETCH  REQUESTED:          0  ISSUED:          0  USEFUL:          0  USELESS:          0
L1D USEFUL LOAD PREFETCHES:          0 PREFETCH ISSUED TO LOWER LEVEL:          0  ACCURACY: -nan
L1D TIMELY PREFETCHES:          0 LATE PREFETCHES: 0 DROPPED PREFETCHES: 0
L1D PREFETCHES SAME FILL-ORIGIN LEVEL: 0 DIFFERENT FILL-ORIGIN LEVEL: 0
L1D AVERAGE MISS LATENCY: 86.6238 cycles
L1D RQ	ACCESS:   13505535	FORWARD:          0	MERGED:    3431133	TO_CACHE:   10070952
L1D WQ	ACCESS:     111818	FORWARD:       3450	MERGED:          0	TO_CACHE:     111818

L1D UNIQUE REGIONS ACCESSED: 0
L1D REGIONS CONFLICTS: 0
L1D Cross Page Prefetch Requests: 0
L1D Same Page Prefetch Requests: 0
L1D ROI Sum of L1D PQ occupancy: 0
L1D PREFETCHES PUSHED FROM L2C: 0
L1I TOTAL     ACCESS:    7897153  HIT:    7897153  MISS:          0  HIT %:        100  MISS %:          0   MPKI: 0
L1I LOAD      ACCESS:    7897153  HIT:    7897153  MISS:          0  HIT %:        100  MISS %:          0   MPKI: 0
L1I PREFETCH  REQUESTED:          0  ISSUED:          0  USEFUL:          0  USELESS:          0
L1I USEFUL LOAD PREFETCHES:          0 PREFETCH ISSUED TO LOWER LEVEL:          0  ACCURACY: -nan
L1I TIMELY PREFETCHES:          0 LATE PREFETCHES: 0 DROPPED PREFETCHES: 0
L1I PREFETCHES SAME FILL-ORIGIN LEVEL: 0 DIFFERENT FILL-ORIGIN LEVEL: 0
L1I AVERAGE MISS LATENCY: -nan cycles
L1I RQ	ACCESS:   13130091	FORWARD:          0	MERGED:    5232939	TO_CACHE:    7897152

BTB TOTAL     ACCESS:    9964188  HIT:    9964183  MISS:          5  HIT %:    99.9999  MISS %: 5.01797e-05   MPKI: 0.0001
BTB BRANCH_DIRECT_JUMP	ACCESS:          0  HIT:          0  MISS:          0
BTB BRANCH_INDIRECT	ACCESS:          0  HIT:          0  MISS:          0
BTB BRANCH_CONDITIONAL	ACCESS:    9964188  HIT:    9964183  MISS:          5
BTB BRANCH_DIRECT_CALL	ACCESS:          0  HIT:          0  MISS:          0
BTB BRANCH_INDIRECT_CALL	ACCESS:          0  HIT:          0  MISS:          0
BTB BRANCH_RETURN	ACCESS:          0  HIT:          0  MISS:          0
BTB BRANCH_OTHER ACCESS:          0  HIT:          0  MISS:          0

L2C TOTAL     ACCESS:    7603984  HIT:    2672402  MISS:    4931582  HIT %:    35.1448  MISS %:    64.8552   MPKI: 98.6316
L2C LOAD      ACCESS:    3638191  HIT:    1011287  MISS:    2626904  HIT %:    27.7964  MISS %:    72.2036   MPKI: 52.5381
L2C DATA LOAD MPKI: 52.5381
L2C INSTRUCTION LOAD MPKI: 0
L2C PREFETCH  ACCESS:    3872276  HIT:    1568398  MISS:    2303878  HIT %:    40.5033  MISS %:    59.4967   MPKI: 46.0776
AGUS PREFETCH L1 MISS: 0
L2C DATA PREFETCH MPKI: 46.0776
L2C INSTRUCTION PREFETCH MPKI: 0
L2C WRITEBACK ACCESS:      89972  HIT:      89821  MISS:        151  HIT %:    99.8322  MISS %:    0.16783   MPKI: 0.00302
L2C LOAD TRANSLATION ACCESS:       3545  HIT:       2896  MISS:        649  HIT %:    81.6925  MISS %:    18.3075   MPKI: 0.01298
L2C PREFETCH  REQUESTED:    3917008  ISSUED:    3901169  USEFUL:     271747  USELESS:    2032102
L2C USEFUL LOAD PREFETCHES:     271747 PREFETCH ISSUED TO LOWER LEVEL:    2306973  ACCURACY: 11.7794
L2C TIMELY PREFETCHES:     271747 LATE PREFETCHES: 3096 DROPPED PREFETCHES: 0
L2C PREFETCHES SAME FILL-ORIGIN LEVEL: 2306973 DIFFERENT FILL-ORIGIN LEVEL: 0
L2C AVERAGE MISS LATENCY: 83.6873 cycles
L2C RQ	ACCESS:    3641736	FORWARD:          0	MERGED:          0	TO_CACHE:    3641736
L2C WQ	ACCESS:      89972	FORWARD:          1	MERGED:          0	TO_CACHE:      89972
L2C PQ	ACCESS:    3901169	FORWARD:          0	MERGED:      15669	TO_CACHE:    3885499

L2C Instructions Evicting Data 0
L2C Translations Evicting Data 649
L2C Data Evicting Data 4930135
L2C Instructions Evicting Instructions 0
L2C Translations Evicting Instructions 0
L2C Data Evicting Instructions 0
L2C Instructions Evicting Translations 0
L2C Translations Evicting Translations 0
L2C Data Evicting Translations 647
L2C Dense regions hint from L2: 0
PSCL5 TOTAL     ACCESS:       3545  HIT:       3545  MISS:          0  HIT %:        100  MISS %:          0   MPKI: 0
PSCL5 LOAD TRANSLATION ACCESS:       3545  HIT:       3545  MISS:          0  HIT %:        100  MISS %:          0   MPKI: 0
PSCL5 PREFETCH  REQUESTED:          0  ISSUED:          0  USEFUL:          0  USELESS:          0
PSCL5 USEFUL LOAD PREFETCHES:          0 PREFETCH ISSUED TO LOWER LEVEL:          0  ACCURACY: -nan
PSCL5 TIMELY PREFETCHES:          0 LATE PREFETCHES: 0 DROPPED PREFETCHES: 0
PSCL5 PREFETCHES SAME FILL-ORIGIN LEVEL: 0 DIFFERENT FILL-ORIGIN LEVEL: 0

PSCL4 TOTAL     ACCESS:       3545  HIT:       3545  MISS:          0  HIT %:        100  MISS %:          0   MPKI: 0
PSCL4 LOAD TRANSLATION ACCESS:       3545  HIT:       3545  MISS:          0  HIT %:        100  MISS %:          0   MPKI: 0
PSCL4 PREFETCH  REQUESTED:          0  ISSUED:          0  USEFUL:          0  USELESS:          0
PSCL4 USEFUL LOAD PREFETCHES:          0 PREFETCH ISSUED TO LOWER LEVEL:          0  ACCURACY: -nan
PSCL4 TIMELY PREFETCHES:          0 LATE PREFETCHES: 0 DROPPED PREFETCHES: 0
PSCL4 PREFETCHES SAME FILL-ORIGIN LEVEL: 0 DIFFERENT FILL-ORIGIN LEVEL: 0

PSCL3 TOTAL     ACCESS:       3545  HIT:       3545  MISS:          0  HIT %:        100  MISS %:          0   MPKI: 0
PSCL3 LOAD TRANSLATION ACCESS:       3545  HIT:       3545  MISS:          0  HIT %:        100  MISS %:          0   MPKI: 0
PSCL3 PREFETCH  REQUESTED:          0  ISSUED:          0  USEFUL:          0  USELESS:          0
PSCL3 USEFUL LOAD PREFETCHES:          0 PREFETCH ISSUED TO LOWER LEVEL:          0  ACCURACY: -nan
PSCL3 TIMELY PREFETCHES:          0 LATE PREFETCHES: 0 DROPPED PREFETCHES: 0
PSCL3 PREFETCHES SAME FILL-ORIGIN LEVEL: 0 DIFFERENT FILL-ORIGIN LEVEL: 0

PSCL2 TOTAL     ACCESS:       3545  HIT:       3538  MISS:          7  HIT %:    99.8025  MISS %:   0.197461   MPKI: 0.00014
PSCL2 LOAD TRANSLATION ACCESS:       3545  HIT:       3538  MISS:          7  HIT %:    99.8025  MISS %:   0.197461   MPKI: 0.00014
PSCL2 PREFETCH  REQUESTED:          0  ISSUED:          0  USEFUL:          0  USELESS:          0
PSCL2 USEFUL LOAD PREFETCHES:          0 PREFETCH ISSUED TO LOWER LEVEL:          0  ACCURACY: -nan
PSCL2 TIMELY PREFETCHES:          0 LATE PREFETCHES: 0 DROPPED PREFETCHES: 0
PSCL2 PREFETCHES SAME FILL-ORIGIN LEVEL: 0 DIFFERENT FILL-ORIGIN LEVEL: 0

LLC TOTAL     ACCESS:    5021333  HIT:    3472244  MISS:    1549089  HIT %:    69.1498  MISS %:    30.8502   MPKI: 30.9818
LLC LOAD      ACCESS:    2623808  HIT:    1515440  MISS:    1108368  HIT %:    57.7573  MISS %:    42.2427   MPKI: 22.1674
LLC PREFETCH  ACCESS:    2306974  HIT:    1866829  MISS:     440145  HIT %:    80.9211  MISS %:    19.0789   MPKI: 8.8029
AGUS PREFETCH L1 MISS: 0
LLC WRITEBACK ACCESS:      89902  HIT:      89788  MISS:        114  HIT %:    99.8732  MISS %:   0.126805   MPKI: 0.00228
LLC LOAD TRANSLATION ACCESS:        649  HIT:        187  MISS:        462  HIT %:    28.8136  MISS %:    71.1864   MPKI: 0.00924
LLC PREFETCH  REQUESTED:          0  ISSUED:          0  USEFUL:     139431  USELESS:     299351
LLC USEFUL LOAD PREFETCHES:     139431 PREFETCH ISSUED TO LOWER LEVEL:     440145  ACCURACY: 31.6784
LLC TIMELY PREFETCHES:     139431 LATE PREFETCHES: 0 DROPPED PREFETCHES: 0
LLC PREFETCHES SAME FILL-ORIGIN LEVEL: 0 DIFFERENT FILL-ORIGIN LEVEL: 0
LLC AVERAGE MISS LATENCY: 170.798 cycles
LLC RQ	ACCESS:    2624457	FORWARD:          0	MERGED:          0	TO_CACHE:    2624457
LLC WQ	ACCESS:      89902	FORWARD:          0	MERGED:          0	TO_CACHE:      89902
LLC PQ	ACCESS:    2306973	FORWARD:          0	MERGED:          0	TO_CACHE:    2306973

LLC Dense regions hint to LLC: 0

RAW hits: 18037
Loads Generated: 13523578
Loads sent to L1D: 13505535
Stores Generated: 111818
Stores sent to L1D: 111818
Major fault: 0 Minor fault: 7970
Allocated PAGES: 7970
Prefetcher final stats
Training Unit Size: 62
Addr table size: 499161 499161


Triggers: 7030285
Structural address exists: 6003894 85.4004
No Prediction: 1026391 14.5996
Prefetches issued: 7904587 112.436
Useful Prefetches: 271747
Useless Prefetches: 2032102
Stream end: 5896977
No translation: 1693691959
%Stream divergence: 1185268 16.8595
Stream divergence -- new stream: 0

DRAM Statistics
 CHANNEL 0
 RQ ROW_BUFFER_HIT:     267912  ROW_BUFFER_MISS:    1281043
 DBUS_CONGESTED:        263
 WQ ROW_BUFFER_HIT:      34954  ROW_BUFFER_MISS:      53272  FULL:          0

 AVG_CONGESTED_CYCLE: 4
 All warmup complete: 2
Channel 0 Bank busy for read cycles: 0
Channel 0 Bank busy for write cycles: 0
Channel 0
Rank 0
0banks busy for read cycles: 100191229
0banks busy for write cycles: 69727
1banks busy for read cycles: 68820923
1banks busy for write cycles: 13701073
2banks busy for read cycles: 27740681
2banks busy for write cycles: 2155286
3banks busy for read cycles: 13488569
3banks busy for write cycles: 343699
4banks busy for read cycles: 6022225
4banks busy for write cycles: 58457
5banks busy for read cycles: 2292966
5banks busy for write cycles: 7040
6banks busy for read cycles: 689340
6banks busy for write cycles: 1117
7banks busy for read cycles: 138026
7banks busy for write cycles: 0
8banks busy for read cycles: 16237
8banks busy for write cycles: 0

CPU 0 Branch Prediction Accuracy: 92.4788% MPKI: 15.0538 Average ROB Occupancy at Mispredict: 35.6061
Branch types
NOT_BRANCH: 39992158 79.9843%
BRANCH_DIRECT_JUMP: 0 0%
BRANCH_INDIRECT: 0 0%
BRANCH_CONDITIONAL: 10007642 20.0153%
BRANCH_DIRECT_CALL: 0 0%
BRANCH_INDIRECT_CALL: 0 0%
BRANCH_RETURN: 0 0%
BRANCH_OTHER: 0 0%

DRAM PAGES: 1048576
Allocated PAGES: 7970
