
*** ChampSim Multicore Out-of-Order Simulator ***

Warmup Instructions: 50000000
Simulation Instructions: 50000000
Number of CPUs: 1
LLC sets: 2048
LLC ways: 16
Off-chip DRAM Size: 4096 MB Channels: 1 Width: 64-bit Data Rate: 6400 MT/s
CPU 0 runs ./traces/GAP/SUBSET/cc-5.trace.gz
.gz
CPU 0 Bimodal branch predictor
BTB has LRU replacement policy
ITLB has LRU replacement policy
DTLB has LRU replacement policy
STLB has LRU replacement policy
L1I has LRU replacement policy
Ideal ISB Prefetching
L1D has LRU replacement policy
L2C has LRU replacement policy
LLC has LRU replacement policy
Heartbeat CPU 0 instructions: 10000002 cycles: 3088124 heartbeat IPC: 3.23821 cumulative IPC: 3.23821 (Simulation time: 0 hr 5 min 15 sec) 
Heartbeat CPU 0 instructions: 20000000 cycles: 6153187 heartbeat IPC: 3.26257 cumulative IPC: 3.25035 (Simulation time: 0 hr 12 min 14 sec) 
Heartbeat CPU 0 instructions: 30000001 cycles: 9229197 heartbeat IPC: 3.25097 cumulative IPC: 3.25055 (Simulation time: 0 hr 19 min 22 sec) 
Heartbeat CPU 0 instructions: 40000000 cycles: 12306046 heartbeat IPC: 3.25008 cumulative IPC: 3.25043 (Simulation time: 0 hr 26 min 49 sec) 
Heartbeat CPU 0 instructions: 50000000 cycles: 15384169 heartbeat IPC: 3.24873 cumulative IPC: 3.25009 (Simulation time: 0 hr 35 min 3 sec) 

Warmup complete CPU 0 instructions: 50000004 cycles: 15384170 (Simulation time: 0 hr 35 min 3 sec) 

Heartbeat CPU 0 instructions: 60000000 cycles: 63719197 heartbeat IPC: 0.206889 cumulative IPC: 0.206889 (Simulation time: 0 hr 42 min 32 sec) 
Heartbeat CPU 0 instructions: 70000002 cycles: 110108934 heartbeat IPC: 0.215565 cumulative IPC: 0.211138 (Simulation time: 0 hr 50 min 13 sec) 
Heartbeat CPU 0 instructions: 80000000 cycles: 156841782 heartbeat IPC: 0.213982 cumulative IPC: 0.212078 (Simulation time: 0 hr 57 min 59 sec) 
Heartbeat CPU 0 instructions: 90000000 cycles: 204396027 heartbeat IPC: 0.210286 cumulative IPC: 0.211627 (Simulation time: 1 hr 5 min 50 sec) 
Heartbeat CPU 0 instructions: 100000000 cycles: 250700640 heartbeat IPC: 0.215961 cumulative IPC: 0.21248 (Simulation time: 1 hr 13 min 34 sec) 
Finished CPU 0 instructions: 50000000 cycles: 235316497 cumulative IPC: 0.21248 (Simulation time: 1 hr 13 min 34 sec) 

ChampSim completed all CPUs

Region of Interest Statistics

CPU 0 cumulative IPC: 0.21248 instructions: 50000000 cycles: 235316497
ITLB TOTAL     ACCESS:    7787011  HIT:    7787011  MISS:          0  HIT %:        100  MISS %:          0   MPKI: 0
ITLB LOAD TRANSLATION ACCESS:    7787011  HIT:    7787011  MISS:          0  HIT %:        100  MISS %:          0   MPKI: 0
ITLB PREFETCH  REQUESTED:          0  ISSUED:          0  USEFUL:          0  USELESS:          0
ITLB USEFUL LOAD PREFETCHES:          0 PREFETCH ISSUED TO LOWER LEVEL:          0  ACCURACY: -nan
ITLB TIMELY PREFETCHES:          0 LATE PREFETCHES: 0 DROPPED PREFETCHES: 0
ITLB PREFETCHES SAME FILL-ORIGIN LEVEL: 0 DIFFERENT FILL-ORIGIN LEVEL: 0
ITLB AVERAGE MISS LATENCY: -nan cycles
ITLB RQ	ACCESS:    7895516	FORWARD:          0	MERGED:     108506	TO_CACHE:    7787010

DTLB TOTAL     ACCESS:    9570594  HIT:    7185874  MISS:    2384720  HIT %:    75.0828  MISS %:    24.9172   MPKI: 47.6944
DTLB LOAD TRANSLATION ACCESS:    9570594  HIT:    7185874  MISS:    2384720  HIT %:    75.0828  MISS %:    24.9172   MPKI: 47.6944
DTLB PREFETCH  REQUESTED:          0  ISSUED:          0  USEFUL:          0  USELESS:          0
DTLB USEFUL LOAD PREFETCHES:          0 PREFETCH ISSUED TO LOWER LEVEL:          0  ACCURACY: -nan
DTLB TIMELY PREFETCHES:          0 LATE PREFETCHES: 0 DROPPED PREFETCHES: 0
DTLB PREFETCHES SAME FILL-ORIGIN LEVEL: 0 DIFFERENT FILL-ORIGIN LEVEL: 0
DTLB AVERAGE MISS LATENCY: 9.74268 cycles
DTLB RQ	ACCESS:   10180899	FORWARD:          0	MERGED:     595774	TO_CACHE:    9585125

STLB TOTAL     ACCESS:    8174402  HIT:    8170857  MISS:       3545  HIT %:    99.9566  MISS %:  0.0433671   MPKI: 0.0709
STLB LOAD TRANSLATION ACCESS:    2384720  HIT:    2381175  MISS:       3545  HIT %:    99.8513  MISS %:   0.148655   MPKI: 0.0709
STLB TRANSLATION FROM L1D PREFETCHER ACCESS:    5789682  HIT:    5789682  MISS:          0  HIT %:        100  MISS %:          0   MPKI: 0
STLB PREFETCH  REQUESTED:          0  ISSUED:          0  USEFUL:          0  USELESS:          0
STLB USEFUL LOAD PREFETCHES:          0 PREFETCH ISSUED TO LOWER LEVEL:          0  ACCURACY: -nan
STLB TIMELY PREFETCHES:          0 LATE PREFETCHES: 0 DROPPED PREFETCHES: 0
STLB PREFETCHES SAME FILL-ORIGIN LEVEL: 0 DIFFERENT FILL-ORIGIN LEVEL: 0
STLB AVERAGE MISS LATENCY: 139.126 cycles
STLB RQ	ACCESS:    9283113	FORWARD:          0	MERGED:    1108713	TO_CACHE:    8174400

STLB Hit, L1D data hit: 0
STLB Hit, L2C data hit: 0
STLB Hit, LLC data hit: 0
STLB Hit, LLC data miss: 0
STLB STLB hints to L2: 0
L1D TOTAL     ACCESS:   16757015  HIT:    9735915  MISS:    7021100  HIT %:    58.1005  MISS %:    41.8995   MPKI: 140.422
L1D LOAD      ACCESS:    9798654  HIT:    6175916  MISS:    3622738  HIT %:    63.0282  MISS %:    36.9718   MPKI: 72.4548
L1D RFO       ACCESS:     111818  HIT:     111818  MISS:          0  HIT %:        100  MISS %:          0   MPKI: 0
L1D PREFETCH  ACCESS:    6846543  HIT:    3448181  MISS:    3398362  HIT %:    50.3638  MISS %:    49.6362   MPKI: 67.9672
AGUS PREFETCH L1 MISS: 0
L1D PREFETCH  REQUESTED:   14668756  ISSUED:   14220496  USEFUL:     134259  USELESS:    3264110
L1D USEFUL LOAD PREFETCHES:     134259 PREFETCH ISSUED TO LOWER LEVEL:    3402722  ACCURACY: 3.94564
L1D TIMELY PREFETCHES:     134259 LATE PREFETCHES: 4360 DROPPED PREFETCHES: 0
L1D PREFETCHES SAME FILL-ORIGIN LEVEL: 3402722 DIFFERENT FILL-ORIGIN LEVEL: 0
L1D AVERAGE MISS LATENCY: 71.3336 cycles
L1D RQ	ACCESS:   13505533	FORWARD:          0	MERGED:    3433008	TO_CACHE:   10069081
L1D WQ	ACCESS:     111818	FORWARD:       3444	MERGED:          0	TO_CACHE:     111818
L1D PQ	ACCESS:    7322102	FORWARD:          0	MERGED:     423708	TO_CACHE:    6898394

L1D UNIQUE REGIONS ACCESSED: 0
L1D REGIONS CONFLICTS: 0
L1D Cross Page Prefetch Requests: 10953657
L1D Same Page Prefetch Requests: 3203738
L1D ROI Sum of L1D PQ occupancy: 96371725
L1D PREFETCHES PUSHED FROM L2C: 0
L1I TOTAL     ACCESS:    7895517  HIT:    7895517  MISS:          0  HIT %:        100  MISS %:          0   MPKI: 0
L1I LOAD      ACCESS:    7895517  HIT:    7895517  MISS:          0  HIT %:        100  MISS %:          0   MPKI: 0
L1I PREFETCH  REQUESTED:          0  ISSUED:          0  USEFUL:          0  USELESS:          0
L1I USEFUL LOAD PREFETCHES:          0 PREFETCH ISSUED TO LOWER LEVEL:          0  ACCURACY: -nan
L1I TIMELY PREFETCHES:          0 LATE PREFETCHES: 0 DROPPED PREFETCHES: 0
L1I PREFETCHES SAME FILL-ORIGIN LEVEL: 0 DIFFERENT FILL-ORIGIN LEVEL: 0
L1I AVERAGE MISS LATENCY: -nan cycles
L1I RQ	ACCESS:   13129601	FORWARD:          0	MERGED:    5234085	TO_CACHE:    7895516

BTB TOTAL     ACCESS:    9964188  HIT:    9964183  MISS:          5  HIT %:    99.9999  MISS %: 5.01797e-05   MPKI: 0.0001
BTB BRANCH_DIRECT_JUMP	ACCESS:          0  HIT:          0  MISS:          0
BTB BRANCH_INDIRECT	ACCESS:          0  HIT:          0  MISS:          0
BTB BRANCH_CONDITIONAL	ACCESS:    9964188  HIT:    9964183  MISS:          5
BTB BRANCH_DIRECT_CALL	ACCESS:          0  HIT:          0  MISS:          0
BTB BRANCH_INDIRECT_CALL	ACCESS:          0  HIT:          0  MISS:          0
BTB BRANCH_RETURN	ACCESS:          0  HIT:          0  MISS:          0
BTB BRANCH_OTHER ACCESS:          0  HIT:          0  MISS:          0

L2C TOTAL     ACCESS:    7114617  HIT:    2465987  MISS:    4648630  HIT %:    34.6609  MISS %:    65.3391   MPKI: 92.9726
L2C LOAD      ACCESS:    3618378  HIT:    1018338  MISS:    2600040  HIT %:    28.1435  MISS %:    71.8565   MPKI: 52.0008
L2C DATA LOAD MPKI: 52.0008
L2C INSTRUCTION LOAD MPKI: 0
L2C PREFETCH  ACCESS:    3402720  HIT:    1354878  MISS:    2047842  HIT %:    39.8175  MISS %:    60.1825   MPKI: 40.9568
AGUS PREFETCH L1 MISS: 0
L2C DATA PREFETCH MPKI: 40.9568
L2C INSTRUCTION PREFETCH MPKI: 0
L2C WRITEBACK ACCESS:      89974  HIT:      89870  MISS:        104  HIT %:    99.8844  MISS %:   0.115589   MPKI: 0.00208
L2C LOAD TRANSLATION ACCESS:       3545  HIT:       2901  MISS:        644  HIT %:    81.8336  MISS %:    18.1664   MPKI: 0.01288
L2C PREFETCH  REQUESTED:          0  ISSUED:          0  USEFUL:     185687  USELESS:    1862208
L2C USEFUL LOAD PREFETCHES:     185687 PREFETCH ISSUED TO LOWER LEVEL:    2047842  ACCURACY: 9.06745
L2C TIMELY PREFETCHES:     185687 LATE PREFETCHES: 0 DROPPED PREFETCHES: 0
L2C PREFETCHES SAME FILL-ORIGIN LEVEL: 0 DIFFERENT FILL-ORIGIN LEVEL: 0
L2C AVERAGE MISS LATENCY: 84.7233 cycles
L2C RQ	ACCESS:    3621922	FORWARD:          0	MERGED:          0	TO_CACHE:    3621922
L2C WQ	ACCESS:      89974	FORWARD:          2	MERGED:          0	TO_CACHE:      89974
L2C PQ	ACCESS:    3402722	FORWARD:          0	MERGED:          0	TO_CACHE:    3402720

L2C Instructions Evicting Data 0
L2C Translations Evicting Data 644
L2C Data Evicting Data 4647241
L2C Instructions Evicting Instructions 0
L2C Translations Evicting Instructions 0
L2C Data Evicting Instructions 0
L2C Instructions Evicting Translations 0
L2C Translations Evicting Translations 0
L2C Data Evicting Translations 641
L2C Dense regions hint from L2: 0
PSCL5 TOTAL     ACCESS:       3545  HIT:       3545  MISS:          0  HIT %:        100  MISS %:          0   MPKI: 0
PSCL5 LOAD TRANSLATION ACCESS:       3545  HIT:       3545  MISS:          0  HIT %:        100  MISS %:          0   MPKI: 0
PSCL5 PREFETCH  REQUESTED:          0  ISSUED:          0  USEFUL:          0  USELESS:          0
PSCL5 USEFUL LOAD PREFETCHES:          0 PREFETCH ISSUED TO LOWER LEVEL:          0  ACCURACY: -nan
PSCL5 TIMELY PREFETCHES:          0 LATE PREFETCHES: 0 DROPPED PREFETCHES: 0
PSCL5 PREFETCHES SAME FILL-ORIGIN LEVEL: 0 DIFFERENT FILL-ORIGIN LEVEL: 0

PSCL4 TOTAL     ACCESS:       3545  HIT:       3545  MISS:          0  HIT %:        100  MISS %:          0   MPKI: 0
PSCL4 LOAD TRANSLATION ACCESS:       3545  HIT:       3545  MISS:          0  HIT %:        100  MISS %:          0   MPKI: 0
PSCL4 PREFETCH  REQUESTED:          0  ISSUED:          0  USEFUL:          0  USELESS:          0
PSCL4 USEFUL LOAD PREFETCHES:          0 PREFETCH ISSUED TO LOWER LEVEL:          0  ACCURACY: -nan
PSCL4 TIMELY PREFETCHES:          0 LATE PREFETCHES: 0 DROPPED PREFETCHES: 0
PSCL4 PREFETCHES SAME FILL-ORIGIN LEVEL: 0 DIFFERENT FILL-ORIGIN LEVEL: 0

PSCL3 TOTAL     ACCESS:       3545  HIT:       3545  MISS:          0  HIT %:        100  MISS %:          0   MPKI: 0
PSCL3 LOAD TRANSLATION ACCESS:       3545  HIT:       3545  MISS:          0  HIT %:        100  MISS %:          0   MPKI: 0
PSCL3 PREFETCH  REQUESTED:          0  ISSUED:          0  USEFUL:          0  USELESS:          0
PSCL3 USEFUL LOAD PREFETCHES:          0 PREFETCH ISSUED TO LOWER LEVEL:          0  ACCURACY: -nan
PSCL3 TIMELY PREFETCHES:          0 LATE PREFETCHES: 0 DROPPED PREFETCHES: 0
PSCL3 PREFETCHES SAME FILL-ORIGIN LEVEL: 0 DIFFERENT FILL-ORIGIN LEVEL: 0

PSCL2 TOTAL     ACCESS:       3545  HIT:       3538  MISS:          7  HIT %:    99.8025  MISS %:   0.197461   MPKI: 0.00014
PSCL2 LOAD TRANSLATION ACCESS:       3545  HIT:       3538  MISS:          7  HIT %:    99.8025  MISS %:   0.197461   MPKI: 0.00014
PSCL2 PREFETCH  REQUESTED:          0  ISSUED:          0  USEFUL:          0  USELESS:          0
PSCL2 USEFUL LOAD PREFETCHES:          0 PREFETCH ISSUED TO LOWER LEVEL:          0  ACCURACY: -nan
PSCL2 TIMELY PREFETCHES:          0 LATE PREFETCHES: 0 DROPPED PREFETCHES: 0
PSCL2 PREFETCHES SAME FILL-ORIGIN LEVEL: 0 DIFFERENT FILL-ORIGIN LEVEL: 0

LLC TOTAL     ACCESS:    4738410  HIT:    3236512  MISS:    1501898  HIT %:    68.3038  MISS %:    31.6962   MPKI: 30.038
LLC LOAD      ACCESS:    2600040  HIT:    1493359  MISS:    1106681  HIT %:     57.436  MISS %:     42.564   MPKI: 22.1336
LLC PREFETCH  ACCESS:    2047840  HIT:    1653165  MISS:     394675  HIT %:    80.7273  MISS %:    19.2727   MPKI: 7.8935
AGUS PREFETCH L1 MISS: 0
LLC WRITEBACK ACCESS:      89886  HIT:      89802  MISS:         84  HIT %:    99.9065  MISS %:  0.0934517   MPKI: 0.00168
LLC LOAD TRANSLATION ACCESS:        644  HIT:        186  MISS:        458  HIT %:     28.882  MISS %:     71.118   MPKI: 0.00916
LLC PREFETCH  REQUESTED:          0  ISSUED:          0  USEFUL:     127241  USELESS:     266216
LLC USEFUL LOAD PREFETCHES:     127241 PREFETCH ISSUED TO LOWER LEVEL:     394675  ACCURACY: 32.2394
LLC TIMELY PREFETCHES:     127241 LATE PREFETCHES: 0 DROPPED PREFETCHES: 0
LLC PREFETCHES SAME FILL-ORIGIN LEVEL: 0 DIFFERENT FILL-ORIGIN LEVEL: 0
LLC AVERAGE MISS LATENCY: 169.269 cycles
LLC RQ	ACCESS:    2600683	FORWARD:          0	MERGED:          0	TO_CACHE:    2600683
LLC WQ	ACCESS:      89886	FORWARD:          2	MERGED:          0	TO_CACHE:      89886
LLC PQ	ACCESS:    2047842	FORWARD:          0	MERGED:          0	TO_CACHE:    2047840

LLC Dense regions hint to LLC: 0

RAW hits: 18038
Loads Generated: 13523577
Loads sent to L1D: 13505533
Stores Generated: 111818
Stores sent to L1D: 111818
Major fault: 0 Minor fault: 7970
Allocated PAGES: 7970
Prefetcher final stats
Training Unit Size: 63
Addr table size: 499183 499184


Triggers: 18854655
Structural address exists: 17090376 90.6427
No Prediction: 1764279 9.35726
Prefetches issued: 14157395 75.087
Useful Prefetches: 134259
Useless Prefetches: 3264110
Stream end: 17007761
No translation: 2489543804
%Stream divergence: 1604300 8.50877
Stream divergence -- new stream: 0

DRAM Statistics
 CHANNEL 0
 RQ ROW_BUFFER_HIT:     259649  ROW_BUFFER_MISS:    1242156
 DBUS_CONGESTED:        246
 WQ ROW_BUFFER_HIT:      35072  ROW_BUFFER_MISS:      53073  FULL:          0

 AVG_CONGESTED_CYCLE: 4
 All warmup complete: 2
Channel 0 Bank busy for read cycles: 0
Channel 0 Bank busy for write cycles: 0
Channel 0
Rank 0
0banks busy for read cycles: 100574099
0banks busy for write cycles: 70321
1banks busy for read cycles: 69686246
1banks busy for write cycles: 13802964
2banks busy for read cycles: 27704199
2banks busy for write cycles: 2099416
3banks busy for read cycles: 13008695
3banks busy for write cycles: 321096
4banks busy for read cycles: 5478198
4banks busy for write cycles: 48499
5banks busy for read cycles: 1919374
5banks busy for write cycles: 6235
6banks busy for read cycles: 501089
6banks busy for write cycles: 1018
7banks busy for read cycles: 88735
7banks busy for write cycles: 144
8banks busy for read cycles: 6170
8banks busy for write cycles: 0

CPU 0 Branch Prediction Accuracy: 92.4788% MPKI: 15.0538 Average ROB Occupancy at Mispredict: 35.5963
Branch types
NOT_BRANCH: 39992158 79.9843%
BRANCH_DIRECT_JUMP: 0 0%
BRANCH_INDIRECT: 0 0%
BRANCH_CONDITIONAL: 10007642 20.0153%
BRANCH_DIRECT_CALL: 0 0%
BRANCH_INDIRECT_CALL: 0 0%
BRANCH_RETURN: 0 0%
BRANCH_OTHER: 0 0%

DRAM PAGES: 1048576
Allocated PAGES: 7970
