
*** ChampSim Multicore Out-of-Order Simulator ***

Warmup Instructions: 50000000
Simulation Instructions: 50000000
Number of CPUs: 1
LLC sets: 2048
LLC ways: 16
Off-chip DRAM Size: 4096 MB Channels: 1 Width: 64-bit Data Rate: 6400 MT/s
CPU 0 runs ./traces/GAP/SUBSET/cc-5.trace.gz
.gz
CPU 0 Bimodal branch predictor
BTB has LRU replacement policy
ITLB has LRU replacement policy
DTLB has LRU replacement policy
STLB has LRU replacement policy
L1I has LRU replacement policy
Ideal ISB Prefetching
L1D has LRU replacement policy
L2C has LRU replacement policy
LLC has LRU replacement policy
Heartbeat CPU 0 instructions: 10000003 cycles: 3086557 heartbeat IPC: 3.23986 cumulative IPC: 3.23986 (Simulation time: 0 hr 5 min 5 sec) 
Heartbeat CPU 0 instructions: 20000000 cycles: 6150989 heartbeat IPC: 3.26325 cumulative IPC: 3.25151 (Simulation time: 0 hr 11 min 53 sec) 
Heartbeat CPU 0 instructions: 30000003 cycles: 9223954 heartbeat IPC: 3.25419 cumulative IPC: 3.2524 (Simulation time: 0 hr 18 min 57 sec) 
Heartbeat CPU 0 instructions: 40000000 cycles: 12299942 heartbeat IPC: 3.25099 cumulative IPC: 3.25205 (Simulation time: 0 hr 26 min 16 sec) 
Heartbeat CPU 0 instructions: 50000000 cycles: 15376899 heartbeat IPC: 3.24996 cumulative IPC: 3.25163 (Simulation time: 0 hr 33 min 47 sec) 

Warmup complete CPU 0 instructions: 50000004 cycles: 15376900 (Simulation time: 0 hr 33 min 47 sec) 

Heartbeat CPU 0 instructions: 60000000 cycles: 63711461 heartbeat IPC: 0.206891 cumulative IPC: 0.206891 (Simulation time: 0 hr 41 min 36 sec) 
Heartbeat CPU 0 instructions: 70000002 cycles: 110099303 heartbeat IPC: 0.215574 cumulative IPC: 0.211143 (Simulation time: 0 hr 49 min 37 sec) 
Heartbeat CPU 0 instructions: 80000000 cycles: 156866941 heartbeat IPC: 0.213823 cumulative IPC: 0.212029 (Simulation time: 0 hr 57 min 42 sec) 
Heartbeat CPU 0 instructions: 90000000 cycles: 204405857 heartbeat IPC: 0.210354 cumulative IPC: 0.211608 (Simulation time: 1 hr 5 min 46 sec) 
Heartbeat CPU 0 instructions: 100000000 cycles: 250680193 heartbeat IPC: 0.216103 cumulative IPC: 0.212492 (Simulation time: 1 hr 13 min 50 sec) 
Finished CPU 0 instructions: 50000000 cycles: 235303320 cumulative IPC: 0.212492 (Simulation time: 1 hr 13 min 50 sec) 

ChampSim completed all CPUs

Region of Interest Statistics

CPU 0 cumulative IPC: 0.212492 instructions: 50000000 cycles: 235303320
ITLB TOTAL     ACCESS:    7787709  HIT:    7787709  MISS:          0  HIT %:        100  MISS %:          0   MPKI: 0
ITLB LOAD TRANSLATION ACCESS:    7787709  HIT:    7787709  MISS:          0  HIT %:        100  MISS %:          0   MPKI: 0
ITLB PREFETCH  REQUESTED:          0  ISSUED:          0  USEFUL:          0  USELESS:          0
ITLB USEFUL LOAD PREFETCHES:          0 PREFETCH ISSUED TO LOWER LEVEL:          0  ACCURACY: -nan
ITLB TIMELY PREFETCHES:          0 LATE PREFETCHES: 0 DROPPED PREFETCHES: 0
ITLB PREFETCHES SAME FILL-ORIGIN LEVEL: 0 DIFFERENT FILL-ORIGIN LEVEL: 0
ITLB AVERAGE MISS LATENCY: -nan cycles
ITLB RQ	ACCESS:    7896214	FORWARD:          0	MERGED:     108506	TO_CACHE:    7787708

DTLB TOTAL     ACCESS:    9570116  HIT:    7185394  MISS:    2384722  HIT %:    75.0816  MISS %:    24.9184   MPKI: 47.6944
DTLB LOAD TRANSLATION ACCESS:    9570116  HIT:    7185394  MISS:    2384722  HIT %:    75.0816  MISS %:    24.9184   MPKI: 47.6944
DTLB PREFETCH  REQUESTED:          0  ISSUED:          0  USEFUL:          0  USELESS:          0
DTLB USEFUL LOAD PREFETCHES:          0 PREFETCH ISSUED TO LOWER LEVEL:          0  ACCURACY: -nan
DTLB TIMELY PREFETCHES:          0 LATE PREFETCHES: 0 DROPPED PREFETCHES: 0
DTLB PREFETCHES SAME FILL-ORIGIN LEVEL: 0 DIFFERENT FILL-ORIGIN LEVEL: 0
DTLB AVERAGE MISS LATENCY: 9.743 cycles
DTLB RQ	ACCESS:   10180139	FORWARD:          0	MERGED:     595502	TO_CACHE:    9584637

STLB TOTAL     ACCESS:    7615921  HIT:    7612376  MISS:       3545  HIT %:    99.9535  MISS %:  0.0465472   MPKI: 0.0709
STLB LOAD TRANSLATION ACCESS:    2384722  HIT:    2381177  MISS:       3545  HIT %:    99.8513  MISS %:   0.148655   MPKI: 0.0709
STLB TRANSLATION FROM L1D PREFETCHER ACCESS:    5231199  HIT:    5231199  MISS:          0  HIT %:        100  MISS %:          0   MPKI: 0
STLB PREFETCH  REQUESTED:          0  ISSUED:          0  USEFUL:          0  USELESS:          0
STLB USEFUL LOAD PREFETCHES:          0 PREFETCH ISSUED TO LOWER LEVEL:          0  ACCURACY: -nan
STLB TIMELY PREFETCHES:          0 LATE PREFETCHES: 0 DROPPED PREFETCHES: 0
STLB PREFETCHES SAME FILL-ORIGIN LEVEL: 0 DIFFERENT FILL-ORIGIN LEVEL: 0
STLB AVERAGE MISS LATENCY: 138.981 cycles
STLB RQ	ACCESS:    8627820	FORWARD:          0	MERGED:    1011899	TO_CACHE:    7615921

STLB Hit, L1D data hit: 0
STLB Hit, L2C data hit: 0
STLB Hit, LLC data hit: 0
STLB Hit, LLC data miss: 0
STLB STLB hints to L2: 0
L1D TOTAL     ACCESS:   16097047  HIT:    9196997  MISS:    6900050  HIT %:    57.1347  MISS %:    42.8653   MPKI: 138.001
L1D LOAD      ACCESS:    9797341  HIT:    6160172  MISS:    3637169  HIT %:     62.876  MISS %:     37.124   MPKI: 72.7434
L1D RFO       ACCESS:     111818  HIT:     111818  MISS:          0  HIT %:        100  MISS %:          0   MPKI: 0
L1D PREFETCH  ACCESS:    6187888  HIT:    2925007  MISS:    3262881  HIT %:    47.2699  MISS %:    52.7301   MPKI: 65.2576
AGUS PREFETCH L1 MISS: 0
L1D PREFETCH  REQUESTED:   13252820  ISSUED:   12883739  USEFUL:     121735  USELESS:    3141162
L1D USEFUL LOAD PREFETCHES:     121735 PREFETCH ISSUED TO LOWER LEVEL:    3267147  ACCURACY: 3.72603
L1D TIMELY PREFETCHES:     121735 LATE PREFETCHES: 4267 DROPPED PREFETCHES: 0
L1D PREFETCHES SAME FILL-ORIGIN LEVEL: 3267147 DIFFERENT FILL-ORIGIN LEVEL: 0
L1D AVERAGE MISS LATENCY: 70.9645 cycles
L1D RQ	ACCESS:   13505535	FORWARD:          0	MERGED:    3433772	TO_CACHE:   10068321
L1D WQ	ACCESS:     111818	FORWARD:       3455	MERGED:          0	TO_CACHE:     111818
L1D PQ	ACCESS:    6640641	FORWARD:          0	MERGED:     397530	TO_CACHE:    6243098

L1D UNIQUE REGIONS ACCESSED: 0
L1D REGIONS CONFLICTS: 0
L1D Cross Page Prefetch Requests: 10262599
L1D Same Page Prefetch Requests: 2706473
L1D ROI Sum of L1D PQ occupancy: 86431792
L1D PREFETCHES PUSHED FROM L2C: 0
L1I TOTAL     ACCESS:    7896215  HIT:    7896215  MISS:          0  HIT %:        100  MISS %:          0   MPKI: 0
L1I LOAD      ACCESS:    7896215  HIT:    7896215  MISS:          0  HIT %:        100  MISS %:          0   MPKI: 0
L1I PREFETCH  REQUESTED:          0  ISSUED:          0  USEFUL:          0  USELESS:          0
L1I USEFUL LOAD PREFETCHES:          0 PREFETCH ISSUED TO LOWER LEVEL:          0  ACCURACY: -nan
L1I TIMELY PREFETCHES:          0 LATE PREFETCHES: 0 DROPPED PREFETCHES: 0
L1I PREFETCHES SAME FILL-ORIGIN LEVEL: 0 DIFFERENT FILL-ORIGIN LEVEL: 0
L1I AVERAGE MISS LATENCY: -nan cycles
L1I RQ	ACCESS:   13130332	FORWARD:          0	MERGED:    5234118	TO_CACHE:    7896214

BTB TOTAL     ACCESS:    9964188  HIT:    9964183  MISS:          5  HIT %:    99.9999  MISS %: 5.01797e-05   MPKI: 0.0001
BTB BRANCH_DIRECT_JUMP	ACCESS:          0  HIT:          0  MISS:          0
BTB BRANCH_INDIRECT	ACCESS:          0  HIT:          0  MISS:          0
BTB BRANCH_CONDITIONAL	ACCESS:    9964188  HIT:    9964183  MISS:          5
BTB BRANCH_DIRECT_CALL	ACCESS:          0  HIT:          0  MISS:          0
BTB BRANCH_INDIRECT_CALL	ACCESS:          0  HIT:          0  MISS:          0
BTB BRANCH_RETURN	ACCESS:          0  HIT:          0  MISS:          0
BTB BRANCH_OTHER ACCESS:          0  HIT:          0  MISS:          0

L2C TOTAL     ACCESS:    6993562  HIT:    2430845  MISS:    4562717  HIT %:    34.7583  MISS %:    65.2417   MPKI: 91.2543
L2C LOAD      ACCESS:    3632901  HIT:    1030815  MISS:    2602086  HIT %:    28.3744  MISS %:    71.6256   MPKI: 52.0417
L2C DATA LOAD MPKI: 52.0417
L2C INSTRUCTION LOAD MPKI: 0
L2C PREFETCH  ACCESS:    3267143  HIT:    1307272  MISS:    1959871  HIT %:    40.0127  MISS %:    59.9873   MPKI: 39.1974
AGUS PREFETCH L1 MISS: 0
L2C DATA PREFETCH MPKI: 39.1974
L2C INSTRUCTION PREFETCH MPKI: 0
L2C WRITEBACK ACCESS:      89973  HIT:      89857  MISS:        116  HIT %:    99.8711  MISS %:   0.128928   MPKI: 0.00232
L2C LOAD TRANSLATION ACCESS:       3545  HIT:       2901  MISS:        644  HIT %:    81.8336  MISS %:    18.1664   MPKI: 0.01288
L2C PREFETCH  REQUESTED:          0  ISSUED:          0  USEFUL:     179000  USELESS:    1780885
L2C USEFUL LOAD PREFETCHES:     179000 PREFETCH ISSUED TO LOWER LEVEL:    1959870  ACCURACY: 9.13326
L2C TIMELY PREFETCHES:     179000 LATE PREFETCHES: 0 DROPPED PREFETCHES: 0
L2C PREFETCHES SAME FILL-ORIGIN LEVEL: 0 DIFFERENT FILL-ORIGIN LEVEL: 0
L2C AVERAGE MISS LATENCY: 84.27 cycles
L2C RQ	ACCESS:    3636446	FORWARD:          0	MERGED:          0	TO_CACHE:    3636446
L2C WQ	ACCESS:      89973	FORWARD:          5	MERGED:          0	TO_CACHE:      89973
L2C PQ	ACCESS:    3267147	FORWARD:          0	MERGED:          0	TO_CACHE:    3267142

L2C Instructions Evicting Data 0
L2C Translations Evicting Data 644
L2C Data Evicting Data 4561315
L2C Instructions Evicting Instructions 0
L2C Translations Evicting Instructions 0
L2C Data Evicting Instructions 0
L2C Instructions Evicting Translations 0
L2C Translations Evicting Translations 0
L2C Data Evicting Translations 642
L2C Dense regions hint from L2: 0
PSCL5 TOTAL     ACCESS:       3545  HIT:       3545  MISS:          0  HIT %:        100  MISS %:          0   MPKI: 0
PSCL5 LOAD TRANSLATION ACCESS:       3545  HIT:       3545  MISS:          0  HIT %:        100  MISS %:          0   MPKI: 0
PSCL5 PREFETCH  REQUESTED:          0  ISSUED:          0  USEFUL:          0  USELESS:          0
PSCL5 USEFUL LOAD PREFETCHES:          0 PREFETCH ISSUED TO LOWER LEVEL:          0  ACCURACY: -nan
PSCL5 TIMELY PREFETCHES:          0 LATE PREFETCHES: 0 DROPPED PREFETCHES: 0
PSCL5 PREFETCHES SAME FILL-ORIGIN LEVEL: 0 DIFFERENT FILL-ORIGIN LEVEL: 0

PSCL4 TOTAL     ACCESS:       3545  HIT:       3545  MISS:          0  HIT %:        100  MISS %:          0   MPKI: 0
PSCL4 LOAD TRANSLATION ACCESS:       3545  HIT:       3545  MISS:          0  HIT %:        100  MISS %:          0   MPKI: 0
PSCL4 PREFETCH  REQUESTED:          0  ISSUED:          0  USEFUL:          0  USELESS:          0
PSCL4 USEFUL LOAD PREFETCHES:          0 PREFETCH ISSUED TO LOWER LEVEL:          0  ACCURACY: -nan
PSCL4 TIMELY PREFETCHES:          0 LATE PREFETCHES: 0 DROPPED PREFETCHES: 0
PSCL4 PREFETCHES SAME FILL-ORIGIN LEVEL: 0 DIFFERENT FILL-ORIGIN LEVEL: 0

PSCL3 TOTAL     ACCESS:       3545  HIT:       3545  MISS:          0  HIT %:        100  MISS %:          0   MPKI: 0
PSCL3 LOAD TRANSLATION ACCESS:       3545  HIT:       3545  MISS:          0  HIT %:        100  MISS %:          0   MPKI: 0
PSCL3 PREFETCH  REQUESTED:          0  ISSUED:          0  USEFUL:          0  USELESS:          0
PSCL3 USEFUL LOAD PREFETCHES:          0 PREFETCH ISSUED TO LOWER LEVEL:          0  ACCURACY: -nan
PSCL3 TIMELY PREFETCHES:          0 LATE PREFETCHES: 0 DROPPED PREFETCHES: 0
PSCL3 PREFETCHES SAME FILL-ORIGIN LEVEL: 0 DIFFERENT FILL-ORIGIN LEVEL: 0

PSCL2 TOTAL     ACCESS:       3545  HIT:       3538  MISS:          7  HIT %:    99.8025  MISS %:   0.197461   MPKI: 0.00014
PSCL2 LOAD TRANSLATION ACCESS:       3545  HIT:       3538  MISS:          7  HIT %:    99.8025  MISS %:   0.197461   MPKI: 0.00014
PSCL2 PREFETCH  REQUESTED:          0  ISSUED:          0  USEFUL:          0  USELESS:          0
PSCL2 USEFUL LOAD PREFETCHES:          0 PREFETCH ISSUED TO LOWER LEVEL:          0  ACCURACY: -nan
PSCL2 TIMELY PREFETCHES:          0 LATE PREFETCHES: 0 DROPPED PREFETCHES: 0
PSCL2 PREFETCHES SAME FILL-ORIGIN LEVEL: 0 DIFFERENT FILL-ORIGIN LEVEL: 0

LLC TOTAL     ACCESS:    4652482  HIT:    3185623  MISS:    1466859  HIT %:    68.4715  MISS %:    31.5285   MPKI: 29.3372
LLC LOAD      ACCESS:    2602086  HIT:    1497357  MISS:    1104729  HIT %:    57.5445  MISS %:    42.4555   MPKI: 22.0946
LLC PREFETCH  ACCESS:    1959870  HIT:    1598284  MISS:     361586  HIT %:    81.5505  MISS %:    18.4495   MPKI: 7.23172
AGUS PREFETCH L1 MISS: 0
LLC WRITEBACK ACCESS:      89882  HIT:      89797  MISS:         85  HIT %:    99.9054  MISS %:  0.0945684   MPKI: 0.0017
LLC LOAD TRANSLATION ACCESS:        644  HIT:        185  MISS:        459  HIT %:    28.7267  MISS %:    71.2733   MPKI: 0.00918
LLC PREFETCH  REQUESTED:          0  ISSUED:          0  USEFUL:     118604  USELESS:     241803
LLC USEFUL LOAD PREFETCHES:     118604 PREFETCH ISSUED TO LOWER LEVEL:     361586  ACCURACY: 32.801
LLC TIMELY PREFETCHES:     118604 LATE PREFETCHES: 0 DROPPED PREFETCHES: 0
LLC PREFETCHES SAME FILL-ORIGIN LEVEL: 0 DIFFERENT FILL-ORIGIN LEVEL: 0
LLC AVERAGE MISS LATENCY: 168.698 cycles
LLC RQ	ACCESS:    2602730	FORWARD:          0	MERGED:          0	TO_CACHE:    2602730
LLC WQ	ACCESS:      89882	FORWARD:          1	MERGED:          0	TO_CACHE:      89882
LLC PQ	ACCESS:    1959870	FORWARD:          0	MERGED:          0	TO_CACHE:    1959869

LLC Dense regions hint to LLC: 0

RAW hits: 18037
Loads Generated: 13523578
Loads sent to L1D: 13505535
Stores Generated: 111818
Stores sent to L1D: 111818
Major fault: 0 Minor fault: 7970
Allocated PAGES: 7970
Prefetcher final stats
Training Unit Size: 204
Addr table size: 498949 499333


Triggers: 18850151
Structural address exists: 17015939 90.2695
No Prediction: 1834212 9.73049
Prefetches issued: 12969072 68.8009
Useful Prefetches: 121735
Useless Prefetches: 3141162
Stream end: 16965214
No translation: 2461417956
%Stream divergence: 2310954 12.2596
Stream divergence -- new stream: 0

DRAM Statistics
 CHANNEL 0
 RQ ROW_BUFFER_HIT:     251308  ROW_BUFFER_MISS:    1215458
 DBUS_CONGESTED:        242
 WQ ROW_BUFFER_HIT:      34983  ROW_BUFFER_MISS:      53185  FULL:          0

 AVG_CONGESTED_CYCLE: 4
 All warmup complete: 2
Channel 0 Bank busy for read cycles: 0
Channel 0 Bank busy for write cycles: 0
Channel 0
Rank 0
0banks busy for read cycles: 101720035
0banks busy for write cycles: 70843
1banks busy for read cycles: 69975399
1banks busy for write cycles: 13840119
2banks busy for read cycles: 27325965
2banks busy for write cycles: 2038915
3banks busy for read cycles: 12557462
3banks busy for write cycles: 290258
4banks busy for read cycles: 5177971
4banks busy for write cycles: 42862
5banks busy for read cycles: 1742240
5banks busy for write cycles: 6592
6banks busy for read cycles: 437754
6banks busy for write cycles: 1207
7banks busy for read cycles: 69370
7banks busy for write cycles: 0
8banks busy for read cycles: 6329
8banks busy for write cycles: 0

CPU 0 Branch Prediction Accuracy: 92.4788% MPKI: 15.0538 Average ROB Occupancy at Mispredict: 35.5972
Branch types
NOT_BRANCH: 39992158 79.9843%
BRANCH_DIRECT_JUMP: 0 0%
BRANCH_INDIRECT: 0 0%
BRANCH_CONDITIONAL: 10007642 20.0153%
BRANCH_DIRECT_CALL: 0 0%
BRANCH_INDIRECT_CALL: 0 0%
BRANCH_RETURN: 0 0%
BRANCH_OTHER: 0 0%

DRAM PAGES: 1048576
Allocated PAGES: 7970
