
*** ChampSim Multicore Out-of-Order Simulator ***

Warmup Instructions: 50000000
Simulation Instructions: 50000000
Number of CPUs: 1
LLC sets: 2048
LLC ways: 16
Off-chip DRAM Size: 4096 MB Channels: 1 Width: 64-bit Data Rate: 6400 MT/s
CPU 0 runs ./traces/GAP/SUBSET/pr-5.trace.gz
.gz
CPU 0 Bimodal branch predictor
BTB has LRU replacement policy
ITLB has LRU replacement policy
DTLB has LRU replacement policy
STLB has LRU replacement policy
L1I has LRU replacement policy
L1D has LRU replacement policy
Ideal ISB Prefetching
L2C has LRU replacement policy
LLC has LRU replacement policy
Heartbeat CPU 0 instructions: 10000003 cycles: 3333431 heartbeat IPC: 2.99991 cumulative IPC: 2.99991 (Simulation time: 0 hr 0 min 24 sec) 
Heartbeat CPU 0 instructions: 20000000 cycles: 9774667 heartbeat IPC: 1.5525 cumulative IPC: 2.04611 (Simulation time: 0 hr 6 min 21 sec) 
Heartbeat CPU 0 instructions: 30000000 cycles: 16666019 heartbeat IPC: 1.45109 cumulative IPC: 1.80007 (Simulation time: 0 hr 13 min 54 sec) 
Heartbeat CPU 0 instructions: 40000000 cycles: 23602458 heartbeat IPC: 1.44166 cumulative IPC: 1.69474 (Simulation time: 0 hr 21 min 31 sec) 
Heartbeat CPU 0 instructions: 50000003 cycles: 30533989 heartbeat IPC: 1.44268 cumulative IPC: 1.63752 (Simulation time: 0 hr 29 min 15 sec) 

Warmup complete CPU 0 instructions: 50000003 cycles: 30533989 (Simulation time: 0 hr 29 min 15 sec) 

Heartbeat CPU 0 instructions: 60000000 cycles: 215681777 heartbeat IPC: 0.0540109 cumulative IPC: 0.0540109 (Simulation time: 0 hr 39 min 21 sec) 
Heartbeat CPU 0 instructions: 70000002 cycles: 401396393 heartbeat IPC: 0.0538461 cumulative IPC: 0.0539284 (Simulation time: 0 hr 49 min 29 sec) 
Heartbeat CPU 0 instructions: 80000000 cycles: 586976817 heartbeat IPC: 0.053885 cumulative IPC: 0.0539139 (Simulation time: 0 hr 59 min 28 sec) 
Heartbeat CPU 0 instructions: 90000000 cycles: 773061552 heartbeat IPC: 0.053739 cumulative IPC: 0.05387 (Simulation time: 1 hr 9 min 33 sec) 
Heartbeat CPU 0 instructions: 100000000 cycles: 958855120 heartbeat IPC: 0.0538232 cumulative IPC: 0.0538607 (Simulation time: 1 hr 19 min 49 sec) 
Finished CPU 0 instructions: 50000002 cycles: 928321198 cumulative IPC: 0.0538607 (Simulation time: 1 hr 19 min 49 sec) 

ChampSim completed all CPUs

Region of Interest Statistics

CPU 0 cumulative IPC: 0.0538607 instructions: 50000002 cycles: 928321198
ITLB TOTAL     ACCESS:   15852633  HIT:   15852633  MISS:          0  HIT %:        100  MISS %:          0   MPKI: 0
ITLB LOAD TRANSLATION ACCESS:   15852633  HIT:   15852633  MISS:          0  HIT %:        100  MISS %:          0   MPKI: 0
ITLB PREFETCH  REQUESTED:          0  ISSUED:          0  USEFUL:          0  USELESS:          0
ITLB USEFUL LOAD PREFETCHES:          0 PREFETCH ISSUED TO LOWER LEVEL:          0  ACCURACY: -nan
ITLB TIMELY PREFETCHES:          0 LATE PREFETCHES: 0 DROPPED PREFETCHES: 0
ITLB PREFETCHES SAME FILL-ORIGIN LEVEL: 0 DIFFERENT FILL-ORIGIN LEVEL: 0
ITLB AVERAGE MISS LATENCY: -nan cycles
ITLB RQ	ACCESS:   16120863	FORWARD:          0	MERGED:     268231	TO_CACHE:   15852632

DTLB TOTAL     ACCESS:   16008242  HIT:    9959334  MISS:    6048908  HIT %:    62.2138  MISS %:    37.7862   MPKI: 120.978
DTLB LOAD TRANSLATION ACCESS:   16008242  HIT:    9959334  MISS:    6048908  HIT %:    62.2138  MISS %:    37.7862   MPKI: 120.978
DTLB PREFETCH  REQUESTED:          0  ISSUED:          0  USEFUL:          0  USELESS:          0
DTLB USEFUL LOAD PREFETCHES:          0 PREFETCH ISSUED TO LOWER LEVEL:          0  ACCURACY: -nan
DTLB TIMELY PREFETCHES:          0 LATE PREFETCHES: 0 DROPPED PREFETCHES: 0
DTLB PREFETCHES SAME FILL-ORIGIN LEVEL: 0 DIFFERENT FILL-ORIGIN LEVEL: 0
DTLB AVERAGE MISS LATENCY: 9.22529 cycles
DTLB RQ	ACCESS:   16169690	FORWARD:          0	MERGED:     159363	TO_CACHE:   16010327

STLB TOTAL     ACCESS:    6048907  HIT:    6039296  MISS:       9611  HIT %:    99.8411  MISS %:   0.158888   MPKI: 0.19222
STLB LOAD TRANSLATION ACCESS:    6048907  HIT:    6039296  MISS:       9611  HIT %:    99.8411  MISS %:   0.158888   MPKI: 0.19222
STLB PREFETCH  REQUESTED:          0  ISSUED:          0  USEFUL:          0  USELESS:          0
STLB USEFUL LOAD PREFETCHES:          0 PREFETCH ISSUED TO LOWER LEVEL:          0  ACCURACY: -nan
STLB TIMELY PREFETCHES:          0 LATE PREFETCHES: 0 DROPPED PREFETCHES: 0
STLB PREFETCHES SAME FILL-ORIGIN LEVEL: 0 DIFFERENT FILL-ORIGIN LEVEL: 0
STLB AVERAGE MISS LATENCY: 136.136 cycles
STLB RQ	ACCESS:    6048907	FORWARD:          0	MERGED:          0	TO_CACHE:    6048907

STLB Hit, L1D data hit: 0
STLB Hit, L2C data hit: 0
STLB Hit, LLC data hit: 0
STLB Hit, LLC data miss: 0
STLB STLB hints to L2: 0
L1D TOTAL     ACCESS:   15092719  HIT:    6028653  MISS:    9064066  HIT %:    39.9441  MISS %:    60.0559   MPKI: 181.281
L1D LOAD      ACCESS:   14490773  HIT:    5426707  MISS:    9064066  HIT %:    37.4494  MISS %:    62.5506   MPKI: 181.281
L1D RFO       ACCESS:     601946  HIT:     601946  MISS:          0  HIT %:        100  MISS %:          0   MPKI: 0
L1D PREFETCH  REQUESTED:          0  ISSUED:          0  USEFUL:          0  USELESS:          0
L1D USEFUL LOAD PREFETCHES:          0 PREFETCH ISSUED TO LOWER LEVEL:          0  ACCURACY: -nan
L1D TIMELY PREFETCHES:          0 LATE PREFETCHES: 0 DROPPED PREFETCHES: 0
L1D PREFETCHES SAME FILL-ORIGIN LEVEL: 0 DIFFERENT FILL-ORIGIN LEVEL: 0
L1D AVERAGE MISS LATENCY: 93.5739 cycles
L1D RQ	ACCESS:   19685199	FORWARD:          0	MERGED:    4117455	TO_CACHE:   15567744
L1D WQ	ACCESS:     601946	FORWARD:          0	MERGED:          0	TO_CACHE:     601946

L1D UNIQUE REGIONS ACCESSED: 0
L1D REGIONS CONFLICTS: 0
L1D Cross Page Prefetch Requests: 0
L1D Same Page Prefetch Requests: 0
L1D ROI Sum of L1D PQ occupancy: 0
L1D PREFETCHES PUSHED FROM L2C: 0
L1I TOTAL     ACCESS:   16120865  HIT:   16120865  MISS:          0  HIT %:        100  MISS %:          0   MPKI: 0
L1I LOAD      ACCESS:   16120865  HIT:   16120865  MISS:          0  HIT %:        100  MISS %:          0   MPKI: 0
L1I PREFETCH  REQUESTED:          0  ISSUED:          0  USEFUL:          0  USELESS:          0
L1I USEFUL LOAD PREFETCHES:          0 PREFETCH ISSUED TO LOWER LEVEL:          0  ACCURACY: -nan
L1I TIMELY PREFETCHES:          0 LATE PREFETCHES: 0 DROPPED PREFETCHES: 0
L1I PREFETCHES SAME FILL-ORIGIN LEVEL: 0 DIFFERENT FILL-ORIGIN LEVEL: 0
L1I AVERAGE MISS LATENCY: -nan cycles
L1I RQ	ACCESS:   24606756	FORWARD:          0	MERGED:    8485893	TO_CACHE:   16120863

BTB TOTAL     ACCESS:    9541627  HIT:    9541624  MISS:          3  HIT %:        100  MISS %: 3.14412e-05   MPKI: 6e-05
BTB BRANCH_DIRECT_JUMP	ACCESS:          0  HIT:          0  MISS:          0
BTB BRANCH_INDIRECT	ACCESS:          0  HIT:          0  MISS:          0
BTB BRANCH_CONDITIONAL	ACCESS:    9541627  HIT:    9541624  MISS:          3
BTB BRANCH_DIRECT_CALL	ACCESS:          0  HIT:          0  MISS:          0
BTB BRANCH_INDIRECT_CALL	ACCESS:          0  HIT:          0  MISS:          0
BTB BRANCH_RETURN	ACCESS:          0  HIT:          0  MISS:          0
BTB BRANCH_OTHER ACCESS:          0  HIT:          0  MISS:          0

L2C TOTAL     ACCESS:   19288624  HIT:    6367186  MISS:   12921438  HIT %:    33.0101  MISS %:    66.9899   MPKI: 258.429
L2C LOAD      ACCESS:    9064066  HIT:    2334728  MISS:    6729338  HIT %:    25.7581  MISS %:    74.2419   MPKI: 134.587
L2C DATA LOAD MPKI: 134.587
L2C INSTRUCTION LOAD MPKI: 0
L2C PREFETCH  ACCESS:   10192455  HIT:    4002742  MISS:    6189713  HIT %:    39.2716  MISS %:    60.7284   MPKI: 123.794
AGUS PREFETCH L1 MISS: 0
L2C DATA PREFETCH MPKI: 123.794
L2C INSTRUCTION PREFETCH MPKI: 0
L2C WRITEBACK ACCESS:      22488  HIT:      22063  MISS:        425  HIT %:    98.1101  MISS %:     1.8899   MPKI: 0.0085
L2C LOAD TRANSLATION ACCESS:       9615  HIT:       7653  MISS:       1962  HIT %:    79.5944  MISS %:    20.4056   MPKI: 0.03924
L2C PREFETCH  REQUESTED:   10203482  ISSUED:   10201884  USEFUL:     762445  USELESS:    5427286
L2C USEFUL LOAD PREFETCHES:     762445 PREFETCH ISSUED TO LOWER LEVEL:    6193846  ACCURACY: 12.3097
L2C TIMELY PREFETCHES:     762445 LATE PREFETCHES: 4132 DROPPED PREFETCHES: 0
L2C PREFETCHES SAME FILL-ORIGIN LEVEL: 6193846 DIFFERENT FILL-ORIGIN LEVEL: 0
L2C AVERAGE MISS LATENCY: 93.5916 cycles
L2C RQ	ACCESS:    9073682	FORWARD:          0	MERGED:          0	TO_CACHE:    9073682
L2C WQ	ACCESS:      22488	FORWARD:          0	MERGED:          0	TO_CACHE:      22488
L2C PQ	ACCESS:   10201884	FORWARD:          0	MERGED:       1620	TO_CACHE:   10200264

L2C Instructions Evicting Data 0
L2C Translations Evicting Data 1962
L2C Data Evicting Data 12917088
L2C Instructions Evicting Instructions 0
L2C Translations Evicting Instructions 0
L2C Data Evicting Instructions 0
L2C Instructions Evicting Translations 0
L2C Translations Evicting Translations 0
L2C Data Evicting Translations 1963
L2C Dense regions hint from L2: 0
PSCL5 TOTAL     ACCESS:       9611  HIT:       9611  MISS:          0  HIT %:        100  MISS %:          0   MPKI: 0
PSCL5 LOAD TRANSLATION ACCESS:       9611  HIT:       9611  MISS:          0  HIT %:        100  MISS %:          0   MPKI: 0
PSCL5 PREFETCH  REQUESTED:          0  ISSUED:          0  USEFUL:          0  USELESS:          0
PSCL5 USEFUL LOAD PREFETCHES:          0 PREFETCH ISSUED TO LOWER LEVEL:          0  ACCURACY: -nan
PSCL5 TIMELY PREFETCHES:          0 LATE PREFETCHES: 0 DROPPED PREFETCHES: 0
PSCL5 PREFETCHES SAME FILL-ORIGIN LEVEL: 0 DIFFERENT FILL-ORIGIN LEVEL: 0

PSCL4 TOTAL     ACCESS:       9611  HIT:       9611  MISS:          0  HIT %:        100  MISS %:          0   MPKI: 0
PSCL4 LOAD TRANSLATION ACCESS:       9611  HIT:       9611  MISS:          0  HIT %:        100  MISS %:          0   MPKI: 0
PSCL4 PREFETCH  REQUESTED:          0  ISSUED:          0  USEFUL:          0  USELESS:          0
PSCL4 USEFUL LOAD PREFETCHES:          0 PREFETCH ISSUED TO LOWER LEVEL:          0  ACCURACY: -nan
PSCL4 TIMELY PREFETCHES:          0 LATE PREFETCHES: 0 DROPPED PREFETCHES: 0
PSCL4 PREFETCHES SAME FILL-ORIGIN LEVEL: 0 DIFFERENT FILL-ORIGIN LEVEL: 0

PSCL3 TOTAL     ACCESS:       9611  HIT:       9611  MISS:          0  HIT %:        100  MISS %:          0   MPKI: 0
PSCL3 LOAD TRANSLATION ACCESS:       9611  HIT:       9611  MISS:          0  HIT %:        100  MISS %:          0   MPKI: 0
PSCL3 PREFETCH  REQUESTED:          0  ISSUED:          0  USEFUL:          0  USELESS:          0
PSCL3 USEFUL LOAD PREFETCHES:          0 PREFETCH ISSUED TO LOWER LEVEL:          0  ACCURACY: -nan
PSCL3 TIMELY PREFETCHES:          0 LATE PREFETCHES: 0 DROPPED PREFETCHES: 0
PSCL3 PREFETCHES SAME FILL-ORIGIN LEVEL: 0 DIFFERENT FILL-ORIGIN LEVEL: 0

PSCL2 TOTAL     ACCESS:       9611  HIT:       9590  MISS:         21  HIT %:    99.7815  MISS %:     0.2185   MPKI: 0.00042
PSCL2 LOAD TRANSLATION ACCESS:       9611  HIT:       9590  MISS:         21  HIT %:    99.7815  MISS %:     0.2185   MPKI: 0.00042
PSCL2 PREFETCH  REQUESTED:          0  ISSUED:          0  USEFUL:          0  USELESS:          0
PSCL2 USEFUL LOAD PREFETCHES:          0 PREFETCH ISSUED TO LOWER LEVEL:          0  ACCURACY: -nan
PSCL2 TIMELY PREFETCHES:          0 LATE PREFETCHES: 0 DROPPED PREFETCHES: 0
PSCL2 PREFETCHES SAME FILL-ORIGIN LEVEL: 0 DIFFERENT FILL-ORIGIN LEVEL: 0

LLC TOTAL     ACCESS:   12940449  HIT:    8076104  MISS:    4864345  HIT %:    62.4098  MISS %:    37.5902   MPKI: 97.2869
LLC LOAD      ACCESS:    6725206  HIT:    3558336  MISS:    3166870  HIT %:    52.9104  MISS %:    47.0896   MPKI: 63.3374
LLC PREFETCH  ACCESS:    6193846  HIT:    4497885  MISS:    1695961  HIT %:    72.6186  MISS %:    27.3814   MPKI: 33.9192
AGUS PREFETCH L1 MISS: 0
LLC WRITEBACK ACCESS:      19435  HIT:      19394  MISS:         41  HIT %:     99.789  MISS %:    0.21096   MPKI: 0.00082
LLC LOAD TRANSLATION ACCESS:       1962  HIT:        489  MISS:       1473  HIT %:    24.9235  MISS %:    75.0765   MPKI: 0.02946
LLC PREFETCH  REQUESTED:          0  ISSUED:          0  USEFUL:     361562  USELESS:    1334290
LLC USEFUL LOAD PREFETCHES:     361562 PREFETCH ISSUED TO LOWER LEVEL:    1695961  ACCURACY: 21.319
LLC TIMELY PREFETCHES:     361562 LATE PREFETCHES: 0 DROPPED PREFETCHES: 0
LLC PREFETCHES SAME FILL-ORIGIN LEVEL: 0 DIFFERENT FILL-ORIGIN LEVEL: 0
LLC AVERAGE MISS LATENCY: 168.848 cycles
LLC RQ	ACCESS:    6727169	FORWARD:          0	MERGED:          0	TO_CACHE:    6727169
LLC WQ	ACCESS:      19435	FORWARD:          0	MERGED:          0	TO_CACHE:      19435
LLC PQ	ACCESS:    6193846	FORWARD:          0	MERGED:          0	TO_CACHE:    6193846

LLC Dense regions hint to LLC: 0

RAW hits: 0
Loads Generated: 19685200
Loads sent to L1D: 19685199
Stores Generated: 601946
Stores sent to L1D: 601946
Major fault: 0 Minor fault: 19654
Allocated PAGES: 19654
Prefetcher final stats
Training Unit Size: 69
Addr table size: 1245416 1245416


Triggers: 16259481
Structural address exists: 13795919 84.8485
No Prediction: 2463562 15.1515
Prefetches issued: 18558285 114.138
Useful Prefetches: 762445
Useless Prefetches: 5427286
Stream end: 13540209
No translation: 861672612
%Stream divergence: 2765666 17.0096
Stream divergence -- new stream: 0

DRAM Statistics
 CHANNEL 0
 RQ ROW_BUFFER_HIT:     509486  ROW_BUFFER_MISS:    4354818
 DBUS_CONGESTED:         37
 WQ ROW_BUFFER_HIT:       4983  ROW_BUFFER_MISS:      13831  FULL:          0

 AVG_CONGESTED_CYCLE: 5
 All warmup complete: 2
Channel 0 Bank busy for read cycles: 0
Channel 0 Bank busy for write cycles: 0
Channel 0
Rank 0
0banks busy for read cycles: 455304177
0banks busy for write cycles: 18065
1banks busy for read cycles: 316164850
1banks busy for write cycles: 3910735
2banks busy for read cycles: 109029814
2banks busy for write cycles: 120506
3banks busy for read cycles: 33158251
3banks busy for write cycles: 5297
4banks busy for read cycles: 8436181
4banks busy for write cycles: 62
5banks busy for read cycles: 1834079
5banks busy for write cycles: 0
6banks busy for read cycles: 300403
6banks busy for write cycles: 0
7banks busy for read cycles: 29480
7banks busy for write cycles: 0
8banks busy for read cycles: 9299
8banks busy for write cycles: 0

CPU 0 Branch Prediction Accuracy: 96.2992% MPKI: 7.06226 Average ROB Occupancy at Mispredict: 115.376
Branch types
NOT_BRANCH: 40458373 80.9167%
BRANCH_DIRECT_JUMP: 0 0%
BRANCH_INDIRECT: 0 0%
BRANCH_CONDITIONAL: 9541630 19.0833%
BRANCH_DIRECT_CALL: 0 0%
BRANCH_INDIRECT_CALL: 0 0%
BRANCH_RETURN: 0 0%
BRANCH_OTHER: 0 0%

DRAM PAGES: 1048576
Allocated PAGES: 19654
