
*** ChampSim Multicore Out-of-Order Simulator ***

Warmup Instructions: 50000000
Simulation Instructions: 50000000
Number of CPUs: 1
LLC sets: 2048
LLC ways: 16
Off-chip DRAM Size: 4096 MB Channels: 1 Width: 64-bit Data Rate: 6400 MT/s
CPU 0 runs ./traces/GAP/SUBSET/pr-5.trace.gz
.gz
CPU 0 Bimodal branch predictor
BTB has LRU replacement policy
ITLB has LRU replacement policy
DTLB has LRU replacement policy
STLB has LRU replacement policy
L1I has LRU replacement policy
L1D has LRU replacement policy
Ideal ISB Prefetching
L2C has LRU replacement policy
LLC has LRU replacement policy
Heartbeat CPU 0 instructions: 10000003 cycles: 3333431 heartbeat IPC: 2.99991 cumulative IPC: 2.99991 (Simulation time: 0 hr 0 min 23 sec) 
Heartbeat CPU 0 instructions: 20000000 cycles: 9740990 heartbeat IPC: 1.56066 cumulative IPC: 2.05318 (Simulation time: 0 hr 8 min 11 sec) 
Heartbeat CPU 0 instructions: 30000000 cycles: 16617916 heartbeat IPC: 1.45414 cumulative IPC: 1.80528 (Simulation time: 0 hr 16 min 47 sec) 
Heartbeat CPU 0 instructions: 40000000 cycles: 23544771 heartbeat IPC: 1.44366 cumulative IPC: 1.69889 (Simulation time: 0 hr 24 min 55 sec) 
Heartbeat CPU 0 instructions: 50000003 cycles: 30467850 heartbeat IPC: 1.44444 cumulative IPC: 1.64107 (Simulation time: 0 hr 33 min 4 sec) 

Warmup complete CPU 0 instructions: 50000003 cycles: 30467850 (Simulation time: 0 hr 33 min 4 sec) 

Heartbeat CPU 0 instructions: 60000000 cycles: 215431942 heartbeat IPC: 0.0540645 cumulative IPC: 0.0540645 (Simulation time: 0 hr 43 min 11 sec) 
Heartbeat CPU 0 instructions: 70000002 cycles: 400959439 heartbeat IPC: 0.0539004 cumulative IPC: 0.0539823 (Simulation time: 0 hr 53 min 18 sec) 
Heartbeat CPU 0 instructions: 80000000 cycles: 586342897 heartbeat IPC: 0.0539422 cumulative IPC: 0.053969 (Simulation time: 1 hr 3 min 24 sec) 
Heartbeat CPU 0 instructions: 90000000 cycles: 772473928 heartbeat IPC: 0.0537256 cumulative IPC: 0.0539079 (Simulation time: 1 hr 13 min 35 sec) 
Heartbeat CPU 0 instructions: 100000000 cycles: 958003733 heartbeat IPC: 0.0538997 cumulative IPC: 0.0539063 (Simulation time: 1 hr 23 min 50 sec) 
Finished CPU 0 instructions: 50000002 cycles: 927535950 cumulative IPC: 0.0539063 (Simulation time: 1 hr 23 min 50 sec) 

ChampSim completed all CPUs

Region of Interest Statistics

CPU 0 cumulative IPC: 0.0539063 instructions: 50000002 cycles: 927535950
ITLB TOTAL     ACCESS:   15852303  HIT:   15852303  MISS:          0  HIT %:        100  MISS %:          0   MPKI: 0
ITLB LOAD TRANSLATION ACCESS:   15852303  HIT:   15852303  MISS:          0  HIT %:        100  MISS %:          0   MPKI: 0
ITLB PREFETCH  REQUESTED:          0  ISSUED:          0  USEFUL:          0  USELESS:          0
ITLB USEFUL LOAD PREFETCHES:          0 PREFETCH ISSUED TO LOWER LEVEL:          0  ACCURACY: -nan
ITLB TIMELY PREFETCHES:          0 LATE PREFETCHES: 0 DROPPED PREFETCHES: 0
ITLB PREFETCHES SAME FILL-ORIGIN LEVEL: 0 DIFFERENT FILL-ORIGIN LEVEL: 0
ITLB AVERAGE MISS LATENCY: -nan cycles
ITLB RQ	ACCESS:   16120533	FORWARD:          0	MERGED:     268231	TO_CACHE:   15852302

DTLB TOTAL     ACCESS:   16008057  HIT:    9959141  MISS:    6048916  HIT %:    62.2133  MISS %:    37.7867   MPKI: 120.978
DTLB LOAD TRANSLATION ACCESS:   16008057  HIT:    9959141  MISS:    6048916  HIT %:    62.2133  MISS %:    37.7867   MPKI: 120.978
DTLB PREFETCH  REQUESTED:          0  ISSUED:          0  USEFUL:          0  USELESS:          0
DTLB USEFUL LOAD PREFETCHES:          0 PREFETCH ISSUED TO LOWER LEVEL:          0  ACCURACY: -nan
DTLB TIMELY PREFETCHES:          0 LATE PREFETCHES: 0 DROPPED PREFETCHES: 0
DTLB PREFETCHES SAME FILL-ORIGIN LEVEL: 0 DIFFERENT FILL-ORIGIN LEVEL: 0
DTLB AVERAGE MISS LATENCY: 9.22527 cycles
DTLB RQ	ACCESS:   16169508	FORWARD:          0	MERGED:     159362	TO_CACHE:   16010146

STLB TOTAL     ACCESS:    6048915  HIT:    6039304  MISS:       9611  HIT %:    99.8411  MISS %:   0.158888   MPKI: 0.19222
STLB LOAD TRANSLATION ACCESS:    6048915  HIT:    6039304  MISS:       9611  HIT %:    99.8411  MISS %:   0.158888   MPKI: 0.19222
STLB PREFETCH  REQUESTED:          0  ISSUED:          0  USEFUL:          0  USELESS:          0
STLB USEFUL LOAD PREFETCHES:          0 PREFETCH ISSUED TO LOWER LEVEL:          0  ACCURACY: -nan
STLB TIMELY PREFETCHES:          0 LATE PREFETCHES: 0 DROPPED PREFETCHES: 0
STLB PREFETCHES SAME FILL-ORIGIN LEVEL: 0 DIFFERENT FILL-ORIGIN LEVEL: 0
STLB AVERAGE MISS LATENCY: 135.95 cycles
STLB RQ	ACCESS:    6048915	FORWARD:          0	MERGED:          0	TO_CACHE:    6048915

STLB Hit, L1D data hit: 0
STLB Hit, L2C data hit: 0
STLB Hit, LLC data hit: 0
STLB Hit, LLC data miss: 0
STLB STLB hints to L2: 0
L1D TOTAL     ACCESS:   15092780  HIT:    6028714  MISS:    9064066  HIT %:    39.9444  MISS %:    60.0556   MPKI: 181.281
L1D LOAD      ACCESS:   14490834  HIT:    5426768  MISS:    9064066  HIT %:    37.4497  MISS %:    62.5503   MPKI: 181.281
L1D RFO       ACCESS:     601946  HIT:     601946  MISS:          0  HIT %:        100  MISS %:          0   MPKI: 0
L1D PREFETCH  REQUESTED:          0  ISSUED:          0  USEFUL:          0  USELESS:          0
L1D USEFUL LOAD PREFETCHES:          0 PREFETCH ISSUED TO LOWER LEVEL:          0  ACCURACY: -nan
L1D TIMELY PREFETCHES:          0 LATE PREFETCHES: 0 DROPPED PREFETCHES: 0
L1D PREFETCHES SAME FILL-ORIGIN LEVEL: 0 DIFFERENT FILL-ORIGIN LEVEL: 0
L1D AVERAGE MISS LATENCY: 93.4801 cycles
L1D RQ	ACCESS:   19685199	FORWARD:          0	MERGED:    4117637	TO_CACHE:   15567562
L1D WQ	ACCESS:     601946	FORWARD:          0	MERGED:          0	TO_CACHE:     601946

L1D UNIQUE REGIONS ACCESSED: 0
L1D REGIONS CONFLICTS: 0
L1D Cross Page Prefetch Requests: 0
L1D Same Page Prefetch Requests: 0
L1D ROI Sum of L1D PQ occupancy: 0
L1D PREFETCHES PUSHED FROM L2C: 0
L1I TOTAL     ACCESS:   16120535  HIT:   16120535  MISS:          0  HIT %:        100  MISS %:          0   MPKI: 0
L1I LOAD      ACCESS:   16120535  HIT:   16120535  MISS:          0  HIT %:        100  MISS %:          0   MPKI: 0
L1I PREFETCH  REQUESTED:          0  ISSUED:          0  USEFUL:          0  USELESS:          0
L1I USEFUL LOAD PREFETCHES:          0 PREFETCH ISSUED TO LOWER LEVEL:          0  ACCURACY: -nan
L1I TIMELY PREFETCHES:          0 LATE PREFETCHES: 0 DROPPED PREFETCHES: 0
L1I PREFETCHES SAME FILL-ORIGIN LEVEL: 0 DIFFERENT FILL-ORIGIN LEVEL: 0
L1I AVERAGE MISS LATENCY: -nan cycles
L1I RQ	ACCESS:   24606456	FORWARD:          0	MERGED:    8485923	TO_CACHE:   16120533

BTB TOTAL     ACCESS:    9541627  HIT:    9541624  MISS:          3  HIT %:        100  MISS %: 3.14412e-05   MPKI: 6e-05
BTB BRANCH_DIRECT_JUMP	ACCESS:          0  HIT:          0  MISS:          0
BTB BRANCH_INDIRECT	ACCESS:          0  HIT:          0  MISS:          0
BTB BRANCH_CONDITIONAL	ACCESS:    9541627  HIT:    9541624  MISS:          3
BTB BRANCH_DIRECT_CALL	ACCESS:          0  HIT:          0  MISS:          0
BTB BRANCH_INDIRECT_CALL	ACCESS:          0  HIT:          0  MISS:          0
BTB BRANCH_RETURN	ACCESS:          0  HIT:          0  MISS:          0
BTB BRANCH_OTHER ACCESS:          0  HIT:          0  MISS:          0

L2C TOTAL     ACCESS:   19361159  HIT:    6650644  MISS:   12710515  HIT %:    34.3504  MISS %:    65.6496   MPKI: 254.21
L2C LOAD      ACCESS:    9064066  HIT:    2363245  MISS:    6700821  HIT %:    26.0727  MISS %:    73.9273   MPKI: 134.016
L2C DATA LOAD MPKI: 134.016
L2C INSTRUCTION LOAD MPKI: 0
L2C PREFETCH  ACCESS:   10264991  HIT:    4257678  MISS:    6007313  HIT %:    41.4777  MISS %:    58.5223   MPKI: 120.146
AGUS PREFETCH L1 MISS: 0
L2C DATA PREFETCH MPKI: 120.146
L2C INSTRUCTION PREFETCH MPKI: 0
L2C WRITEBACK ACCESS:      22487  HIT:      22059  MISS:        428  HIT %:    98.0967  MISS %:    1.90332   MPKI: 0.00856
L2C LOAD TRANSLATION ACCESS:       9615  HIT:       7662  MISS:       1953  HIT %:     79.688  MISS %:     20.312   MPKI: 0.03906
L2C PREFETCH  REQUESTED:   10276883  ISSUED:   10275307  USEFUL:     754725  USELESS:    5252531
L2C USEFUL LOAD PREFETCHES:     754725 PREFETCH ISSUED TO LOWER LEVEL:    6012079  ACCURACY: 12.5535
L2C TIMELY PREFETCHES:     754725 LATE PREFETCHES: 4766 DROPPED PREFETCHES: 0
L2C PREFETCHES SAME FILL-ORIGIN LEVEL: 6012079 DIFFERENT FILL-ORIGIN LEVEL: 0
L2C AVERAGE MISS LATENCY: 93.3243 cycles
L2C RQ	ACCESS:    9073682	FORWARD:          0	MERGED:          0	TO_CACHE:    9073682
L2C WQ	ACCESS:      22487	FORWARD:          0	MERGED:          0	TO_CACHE:      22487
L2C PQ	ACCESS:   10275307	FORWARD:          0	MERGED:       1606	TO_CACHE:   10273701

L2C Instructions Evicting Data 0
L2C Translations Evicting Data 1953
L2C Data Evicting Data 12706180
L2C Instructions Evicting Instructions 0
L2C Translations Evicting Instructions 0
L2C Data Evicting Instructions 0
L2C Instructions Evicting Translations 0
L2C Translations Evicting Translations 0
L2C Data Evicting Translations 1954
L2C Dense regions hint from L2: 0
PSCL5 TOTAL     ACCESS:       9611  HIT:       9611  MISS:          0  HIT %:        100  MISS %:          0   MPKI: 0
PSCL5 LOAD TRANSLATION ACCESS:       9611  HIT:       9611  MISS:          0  HIT %:        100  MISS %:          0   MPKI: 0
PSCL5 PREFETCH  REQUESTED:          0  ISSUED:          0  USEFUL:          0  USELESS:          0
PSCL5 USEFUL LOAD PREFETCHES:          0 PREFETCH ISSUED TO LOWER LEVEL:          0  ACCURACY: -nan
PSCL5 TIMELY PREFETCHES:          0 LATE PREFETCHES: 0 DROPPED PREFETCHES: 0
PSCL5 PREFETCHES SAME FILL-ORIGIN LEVEL: 0 DIFFERENT FILL-ORIGIN LEVEL: 0

PSCL4 TOTAL     ACCESS:       9611  HIT:       9611  MISS:          0  HIT %:        100  MISS %:          0   MPKI: 0
PSCL4 LOAD TRANSLATION ACCESS:       9611  HIT:       9611  MISS:          0  HIT %:        100  MISS %:          0   MPKI: 0
PSCL4 PREFETCH  REQUESTED:          0  ISSUED:          0  USEFUL:          0  USELESS:          0
PSCL4 USEFUL LOAD PREFETCHES:          0 PREFETCH ISSUED TO LOWER LEVEL:          0  ACCURACY: -nan
PSCL4 TIMELY PREFETCHES:          0 LATE PREFETCHES: 0 DROPPED PREFETCHES: 0
PSCL4 PREFETCHES SAME FILL-ORIGIN LEVEL: 0 DIFFERENT FILL-ORIGIN LEVEL: 0

PSCL3 TOTAL     ACCESS:       9611  HIT:       9611  MISS:          0  HIT %:        100  MISS %:          0   MPKI: 0
PSCL3 LOAD TRANSLATION ACCESS:       9611  HIT:       9611  MISS:          0  HIT %:        100  MISS %:          0   MPKI: 0
PSCL3 PREFETCH  REQUESTED:          0  ISSUED:          0  USEFUL:          0  USELESS:          0
PSCL3 USEFUL LOAD PREFETCHES:          0 PREFETCH ISSUED TO LOWER LEVEL:          0  ACCURACY: -nan
PSCL3 TIMELY PREFETCHES:          0 LATE PREFETCHES: 0 DROPPED PREFETCHES: 0
PSCL3 PREFETCHES SAME FILL-ORIGIN LEVEL: 0 DIFFERENT FILL-ORIGIN LEVEL: 0

PSCL2 TOTAL     ACCESS:       9611  HIT:       9590  MISS:         21  HIT %:    99.7815  MISS %:     0.2185   MPKI: 0.00042
PSCL2 LOAD TRANSLATION ACCESS:       9611  HIT:       9590  MISS:         21  HIT %:    99.7815  MISS %:     0.2185   MPKI: 0.00042
PSCL2 PREFETCH  REQUESTED:          0  ISSUED:          0  USEFUL:          0  USELESS:          0
PSCL2 USEFUL LOAD PREFETCHES:          0 PREFETCH ISSUED TO LOWER LEVEL:          0  ACCURACY: -nan
PSCL2 TIMELY PREFETCHES:          0 LATE PREFETCHES: 0 DROPPED PREFETCHES: 0
PSCL2 PREFETCHES SAME FILL-ORIGIN LEVEL: 0 DIFFERENT FILL-ORIGIN LEVEL: 0

LLC TOTAL     ACCESS:   12729552  HIT:    7947553  MISS:    4781999  HIT %:    62.4339  MISS %:    37.5661   MPKI: 95.64
LLC LOAD      ACCESS:    6696055  HIT:    3526284  MISS:    3169771  HIT %:    52.6621  MISS %:    47.3379   MPKI: 63.3954
LLC PREFETCH  ACCESS:    6012079  HIT:    4401367  MISS:    1610712  HIT %:    73.2087  MISS %:    26.7913   MPKI: 32.2142
AGUS PREFETCH L1 MISS: 0
LLC WRITEBACK ACCESS:      19465  HIT:      19420  MISS:         45  HIT %:    99.7688  MISS %:   0.231184   MPKI: 0.0009
LLC LOAD TRANSLATION ACCESS:       1953  HIT:        482  MISS:       1471  HIT %:      24.68  MISS %:      75.32   MPKI: 0.02942
LLC PREFETCH  REQUESTED:          0  ISSUED:          0  USEFUL:     342178  USELESS:    1268557
LLC USEFUL LOAD PREFETCHES:     342178 PREFETCH ISSUED TO LOWER LEVEL:    1610712  ACCURACY: 21.2439
LLC TIMELY PREFETCHES:     342178 LATE PREFETCHES: 0 DROPPED PREFETCHES: 0
LLC PREFETCHES SAME FILL-ORIGIN LEVEL: 0 DIFFERENT FILL-ORIGIN LEVEL: 0
LLC AVERAGE MISS LATENCY: 168.24 cycles
LLC RQ	ACCESS:    6698009	FORWARD:          0	MERGED:          0	TO_CACHE:    6698009
LLC WQ	ACCESS:      19465	FORWARD:          0	MERGED:          0	TO_CACHE:      19465
LLC PQ	ACCESS:    6012079	FORWARD:          0	MERGED:          0	TO_CACHE:    6012079

LLC Dense regions hint to LLC: 0

RAW hits: 0
Loads Generated: 19685200
Loads sent to L1D: 19685199
Stores Generated: 601946
Stores sent to L1D: 601946
Major fault: 0 Minor fault: 19654
Allocated PAGES: 19654
Prefetcher final stats
Training Unit Size: 69
Addr table size: 1245155 1245155


Triggers: 16259484
Structural address exists: 13665026 84.0434
No Prediction: 2594458 15.9566
Prefetches issued: 18218116 112.046
Useful Prefetches: 754725
Useless Prefetches: 5252531
Stream end: 13467835
No translation: 787455538
%Stream divergence: 3631214 22.3329
Stream divergence -- new stream: 0

DRAM Statistics
 CHANNEL 0
 RQ ROW_BUFFER_HIT:     509715  ROW_BUFFER_MISS:    4272239
 DBUS_CONGESTED:         48
 WQ ROW_BUFFER_HIT:       5124  ROW_BUFFER_MISS:      13696  FULL:          0

 AVG_CONGESTED_CYCLE: 5
 All warmup complete: 2
Channel 0 Bank busy for read cycles: 0
Channel 0 Bank busy for write cycles: 0
Channel 0
Rank 0
0banks busy for read cycles: 458580320
0banks busy for write cycles: 18065
1banks busy for read cycles: 317785469
1banks busy for write cycles: 3904271
2banks busy for read cycles: 105423870
2banks busy for write cycles: 125962
3banks busy for read cycles: 31539961
3banks busy for write cycles: 4045
4banks busy for read cycles: 8082096
4banks busy for write cycles: 0
5banks busy for read cycles: 1739595
5banks busy for write cycles: 0
6banks busy for read cycles: 292468
6banks busy for write cycles: 0
7banks busy for read cycles: 30709
7banks busy for write cycles: 0
8banks busy for read cycles: 9120
8banks busy for write cycles: 0

CPU 0 Branch Prediction Accuracy: 96.2992% MPKI: 7.06226 Average ROB Occupancy at Mispredict: 115.347
Branch types
NOT_BRANCH: 40458373 80.9167%
BRANCH_DIRECT_JUMP: 0 0%
BRANCH_INDIRECT: 0 0%
BRANCH_CONDITIONAL: 9541630 19.0833%
BRANCH_DIRECT_CALL: 0 0%
BRANCH_INDIRECT_CALL: 0 0%
BRANCH_RETURN: 0 0%
BRANCH_OTHER: 0 0%

DRAM PAGES: 1048576
Allocated PAGES: 19654
