
*** ChampSim Multicore Out-of-Order Simulator ***

Warmup Instructions: 50000000
Simulation Instructions: 50000000
Number of CPUs: 1
LLC sets: 2048
LLC ways: 16
Off-chip DRAM Size: 4096 MB Channels: 1 Width: 64-bit Data Rate: 6400 MT/s
CPU 0 runs ./traces/GAP/SUBSET/pr-5.trace.gz
.gz
CPU 0 Bimodal branch predictor
BTB has LRU replacement policy
ITLB has LRU replacement policy
DTLB has LRU replacement policy
STLB has LRU replacement policy
L1I has LRU replacement policy
Ideal ISB Prefetching
L1D has LRU replacement policy
L2C has LRU replacement policy
LLC has LRU replacement policy
Heartbeat CPU 0 instructions: 10000003 cycles: 3333431 heartbeat IPC: 2.99991 cumulative IPC: 2.99991 (Simulation time: 0 hr 5 min 25 sec) 
Heartbeat CPU 0 instructions: 20000000 cycles: 10114556 heartbeat IPC: 1.47468 cumulative IPC: 1.97735 (Simulation time: 0 hr 15 min 28 sec) 
Heartbeat CPU 0 instructions: 30000000 cycles: 17318815 heartbeat IPC: 1.38807 cumulative IPC: 1.73222 (Simulation time: 0 hr 26 min 23 sec) 
Heartbeat CPU 0 instructions: 40000000 cycles: 24612657 heartbeat IPC: 1.37102 cumulative IPC: 1.62518 (Simulation time: 0 hr 37 min 16 sec) 
Heartbeat CPU 0 instructions: 50000003 cycles: 31901033 heartbeat IPC: 1.37205 cumulative IPC: 1.56735 (Simulation time: 0 hr 48 min 13 sec) 

Warmup complete CPU 0 instructions: 50000003 cycles: 31901033 (Simulation time: 0 hr 48 min 13 sec) 

Heartbeat CPU 0 instructions: 60000000 cycles: 215966891 heartbeat IPC: 0.0543284 cumulative IPC: 0.0543284 (Simulation time: 1 hr 2 min 9 sec) 
Heartbeat CPU 0 instructions: 70000002 cycles: 400878632 heartbeat IPC: 0.0540799 cumulative IPC: 0.0542038 (Simulation time: 1 hr 15 min 44 sec) 
Heartbeat CPU 0 instructions: 80000000 cycles: 585619136 heartbeat IPC: 0.05413 cumulative IPC: 0.0541792 (Simulation time: 1 hr 29 min 35 sec) 
Heartbeat CPU 0 instructions: 90000000 cycles: 770638219 heartbeat IPC: 0.0540485 cumulative IPC: 0.0541465 (Simulation time: 1 hr 43 min 38 sec) 
Heartbeat CPU 0 instructions: 100000000 cycles: 955367007 heartbeat IPC: 0.0541334 cumulative IPC: 0.0541438 (Simulation time: 1 hr 57 min 51 sec) 
Finished CPU 0 instructions: 50000002 cycles: 923466041 cumulative IPC: 0.0541438 (Simulation time: 1 hr 57 min 51 sec) 

ChampSim completed all CPUs

Region of Interest Statistics

CPU 0 cumulative IPC: 0.0541438 instructions: 50000002 cycles: 923466041
ITLB TOTAL     ACCESS:   15854119  HIT:   15854119  MISS:          0  HIT %:        100  MISS %:          0   MPKI: 0
ITLB LOAD TRANSLATION ACCESS:   15854119  HIT:   15854119  MISS:          0  HIT %:        100  MISS %:          0   MPKI: 0
ITLB PREFETCH  REQUESTED:          0  ISSUED:          0  USEFUL:          0  USELESS:          0
ITLB USEFUL LOAD PREFETCHES:          0 PREFETCH ISSUED TO LOWER LEVEL:          0  ACCURACY: -nan
ITLB TIMELY PREFETCHES:          0 LATE PREFETCHES: 0 DROPPED PREFETCHES: 0
ITLB PREFETCHES SAME FILL-ORIGIN LEVEL: 0 DIFFERENT FILL-ORIGIN LEVEL: 0
ITLB AVERAGE MISS LATENCY: -nan cycles
ITLB RQ	ACCESS:   16122349	FORWARD:          0	MERGED:     268231	TO_CACHE:   15854118

DTLB TOTAL     ACCESS:   16007954  HIT:    9959044  MISS:    6048910  HIT %:    62.2131  MISS %:    37.7869   MPKI: 120.978
DTLB LOAD TRANSLATION ACCESS:   16007954  HIT:    9959044  MISS:    6048910  HIT %:    62.2131  MISS %:    37.7869   MPKI: 120.978
DTLB PREFETCH  REQUESTED:          0  ISSUED:          0  USEFUL:          0  USELESS:          0
DTLB USEFUL LOAD PREFETCHES:          0 PREFETCH ISSUED TO LOWER LEVEL:          0  ACCURACY: -nan
DTLB TIMELY PREFETCHES:          0 LATE PREFETCHES: 0 DROPPED PREFETCHES: 0
DTLB PREFETCHES SAME FILL-ORIGIN LEVEL: 0 DIFFERENT FILL-ORIGIN LEVEL: 0
DTLB AVERAGE MISS LATENCY: 9.18265 cycles
DTLB RQ	ACCESS:   16169325	FORWARD:          0	MERGED:     159277	TO_CACHE:   16010048

STLB TOTAL     ACCESS:   15383089  HIT:   15373478  MISS:       9611  HIT %:    99.9375  MISS %:  0.0624777   MPKI: 0.19222
STLB LOAD TRANSLATION ACCESS:    6048909  HIT:    6040179  MISS:       8730  HIT %:    99.8557  MISS %:   0.144324   MPKI: 0.1746
STLB TRANSLATION FROM L1D PREFETCHER ACCESS:    9334180  HIT:    9333299  MISS:        881  HIT %:    99.9906  MISS %: 0.00943843   MPKI: 0.01762
STLB PREFETCH  REQUESTED:          0  ISSUED:          0  USEFUL:        881  USELESS:          0
STLB USEFUL LOAD PREFETCHES:        881 PREFETCH ISSUED TO LOWER LEVEL:          0  ACCURACY: inf
STLB TIMELY PREFETCHES:        881 LATE PREFETCHES: 0 DROPPED PREFETCHES: 0
STLB PREFETCHES SAME FILL-ORIGIN LEVEL: 0 DIFFERENT FILL-ORIGIN LEVEL: 0
STLB AVERAGE MISS LATENCY: 136.055 cycles
STLB RQ	ACCESS:   19431285	FORWARD:          0	MERGED:    4048196	TO_CACHE:   15383089

STLB Hit, L1D data hit: 0
STLB Hit, L2C data hit: 0
STLB Hit, LLC data hit: 0
STLB Hit, LLC data miss: 0
STLB STLB hints to L2: 0
L1D TOTAL     ACCESS:   28412336  HIT:   10264933  MISS:   18147403  HIT %:    36.1284  MISS %:    63.8716   MPKI: 362.948
L1D LOAD      ACCESS:   14488249  HIT:    5660832  MISS:    8827417  HIT %:    39.0719  MISS %:    60.9281   MPKI: 176.548
L1D RFO       ACCESS:     601946  HIT:     601946  MISS:          0  HIT %:        100  MISS %:          0   MPKI: 0
L1D PREFETCH  ACCESS:   13322141  HIT:    4002155  MISS:    9319986  HIT %:    30.0414  MISS %:    69.9586   MPKI: 186.4
AGUS PREFETCH L1 MISS: 0
L1D PREFETCH  REQUESTED:   28529008  ISSUED:   26771302  USEFUL:     444099  USELESS:    8875899
L1D USEFUL LOAD PREFETCHES:     444099 PREFETCH ISSUED TO LOWER LEVEL:    9324970  ACCURACY: 4.76247
L1D TIMELY PREFETCHES:     444099 LATE PREFETCHES: 4985 DROPPED PREFETCHES: 0
L1D PREFETCHES SAME FILL-ORIGIN LEVEL: 9324970 DIFFERENT FILL-ORIGIN LEVEL: 0
L1D AVERAGE MISS LATENCY: 79.9144 cycles
L1D RQ	ACCESS:   19685199	FORWARD:          0	MERGED:    4117820	TO_CACHE:   15567379
L1D WQ	ACCESS:     601946	FORWARD:          0	MERGED:          0	TO_CACHE:     601946
L1D PQ	ACCESS:   13388926	FORWARD:          0	MERGED:       6550	TO_CACHE:   13382376

L1D UNIQUE REGIONS ACCESSED: 0
L1D REGIONS CONFLICTS: 0
L1D Cross Page Prefetch Requests: 15783316
L1D Same Page Prefetch Requests: 7586283
L1D ROI Sum of L1D PQ occupancy: 188941943
L1D PREFETCHES PUSHED FROM L2C: 0
L1I TOTAL     ACCESS:   16122351  HIT:   16122351  MISS:          0  HIT %:        100  MISS %:          0   MPKI: 0
L1I LOAD      ACCESS:   16122351  HIT:   16122351  MISS:          0  HIT %:        100  MISS %:          0   MPKI: 0
L1I PREFETCH  REQUESTED:          0  ISSUED:          0  USEFUL:          0  USELESS:          0
L1I USEFUL LOAD PREFETCHES:          0 PREFETCH ISSUED TO LOWER LEVEL:          0  ACCURACY: -nan
L1I TIMELY PREFETCHES:          0 LATE PREFETCHES: 0 DROPPED PREFETCHES: 0
L1I PREFETCHES SAME FILL-ORIGIN LEVEL: 0 DIFFERENT FILL-ORIGIN LEVEL: 0
L1I AVERAGE MISS LATENCY: -nan cycles
L1I RQ	ACCESS:   24608093	FORWARD:          0	MERGED:    8485744	TO_CACHE:   16122349

BTB TOTAL     ACCESS:    9541627  HIT:    9541624  MISS:          3  HIT %:        100  MISS %: 3.14412e-05   MPKI: 6e-05
BTB BRANCH_DIRECT_JUMP	ACCESS:          0  HIT:          0  MISS:          0
BTB BRANCH_INDIRECT	ACCESS:          0  HIT:          0  MISS:          0
BTB BRANCH_CONDITIONAL	ACCESS:    9541627  HIT:    9541624  MISS:          3
BTB BRANCH_DIRECT_CALL	ACCESS:          0  HIT:          0  MISS:          0
BTB BRANCH_INDIRECT_CALL	ACCESS:          0  HIT:          0  MISS:          0
BTB BRANCH_RETURN	ACCESS:          0  HIT:          0  MISS:          0
BTB BRANCH_OTHER ACCESS:          0  HIT:          0  MISS:          0

L2C TOTAL     ACCESS:   18185525  HIT:    5642855  MISS:   12542670  HIT %:    31.0294  MISS %:    68.9706   MPKI: 250.853
L2C LOAD      ACCESS:    8822426  HIT:    2147258  MISS:    6675168  HIT %:    24.3386  MISS %:    75.6614   MPKI: 133.503
L2C DATA LOAD MPKI: 133.503
L2C INSTRUCTION LOAD MPKI: 0
L2C PREFETCH  ACCESS:    9324970  HIT:    3459999  MISS:    5864971  HIT %:    37.1047  MISS %:    62.8953   MPKI: 117.299
AGUS PREFETCH L1 MISS: 0
L2C DATA PREFETCH MPKI: 117.299
L2C INSTRUCTION PREFETCH MPKI: 0
L2C WRITEBACK ACCESS:      28514  HIT:      27947  MISS:        567  HIT %:    98.0115  MISS %:     1.9885   MPKI: 0.01134
L2C LOAD TRANSLATION ACCESS:       8730  HIT:       7594  MISS:       1136  HIT %:    86.9874  MISS %:    13.0126   MPKI: 0.02272
L2C TRANSLATION FROM L1D PREFETCHER ACCESS:        885  HIT:         57  MISS:        828  HIT %:    6.44068  MISS %:    93.5593   MPKI: 0.01656
L2C PREFETCH  REQUESTED:          0  ISSUED:          0  USEFUL:     460513  USELESS:    5405174
L2C USEFUL LOAD PREFETCHES:     460513 PREFETCH ISSUED TO LOWER LEVEL:    5864971  ACCURACY: 7.85192
L2C TIMELY PREFETCHES:     460513 LATE PREFETCHES: 0 DROPPED PREFETCHES: 0
L2C PREFETCHES SAME FILL-ORIGIN LEVEL: 0 DIFFERENT FILL-ORIGIN LEVEL: 0
L2C AVERAGE MISS LATENCY: 93.8011 cycles
L2C RQ	ACCESS:    8832048	FORWARD:          0	MERGED:          0	TO_CACHE:    8832042
L2C WQ	ACCESS:      28514	FORWARD:          6	MERGED:          0	TO_CACHE:      28514
L2C PQ	ACCESS:    9324970	FORWARD:          0	MERGED:          0	TO_CACHE:    9324970

L2C Instructions Evicting Data 0
L2C Translations Evicting Data 1964
L2C Data Evicting Data 12538173
L2C Instructions Evicting Instructions 0
L2C Translations Evicting Instructions 0
L2C Data Evicting Instructions 0
L2C Instructions Evicting Translations 0
L2C Translations Evicting Translations 0
L2C Data Evicting Translations 1966
L2C Dense regions hint from L2: 0
PSCL5 TOTAL     ACCESS:       9611  HIT:       9611  MISS:          0  HIT %:        100  MISS %:          0   MPKI: 0
PSCL5 LOAD TRANSLATION ACCESS:       8730  HIT:       8730  MISS:          0  HIT %:        100  MISS %:          0   MPKI: 0
PSCL5 TRANSLATION FROM L1D PREFETCHER ACCESS:        881  HIT:        881  MISS:          0  HIT %:        100  MISS %:          0   MPKI: 0
PSCL5 PREFETCH  REQUESTED:          0  ISSUED:          0  USEFUL:          0  USELESS:          0
PSCL5 USEFUL LOAD PREFETCHES:          0 PREFETCH ISSUED TO LOWER LEVEL:          0  ACCURACY: -nan
PSCL5 TIMELY PREFETCHES:          0 LATE PREFETCHES: 0 DROPPED PREFETCHES: 0
PSCL5 PREFETCHES SAME FILL-ORIGIN LEVEL: 0 DIFFERENT FILL-ORIGIN LEVEL: 0

PSCL4 TOTAL     ACCESS:       9611  HIT:       9611  MISS:          0  HIT %:        100  MISS %:          0   MPKI: 0
PSCL4 LOAD TRANSLATION ACCESS:       8730  HIT:       8730  MISS:          0  HIT %:        100  MISS %:          0   MPKI: 0
PSCL4 TRANSLATION FROM L1D PREFETCHER ACCESS:        881  HIT:        881  MISS:          0  HIT %:        100  MISS %:          0   MPKI: 0
PSCL4 PREFETCH  REQUESTED:          0  ISSUED:          0  USEFUL:          0  USELESS:          0
PSCL4 USEFUL LOAD PREFETCHES:          0 PREFETCH ISSUED TO LOWER LEVEL:          0  ACCURACY: -nan
PSCL4 TIMELY PREFETCHES:          0 LATE PREFETCHES: 0 DROPPED PREFETCHES: 0
PSCL4 PREFETCHES SAME FILL-ORIGIN LEVEL: 0 DIFFERENT FILL-ORIGIN LEVEL: 0

PSCL3 TOTAL     ACCESS:       9611  HIT:       9611  MISS:          0  HIT %:        100  MISS %:          0   MPKI: 0
PSCL3 LOAD TRANSLATION ACCESS:       8730  HIT:       8730  MISS:          0  HIT %:        100  MISS %:          0   MPKI: 0
PSCL3 TRANSLATION FROM L1D PREFETCHER ACCESS:        881  HIT:        881  MISS:          0  HIT %:        100  MISS %:          0   MPKI: 0
PSCL3 PREFETCH  REQUESTED:          0  ISSUED:          0  USEFUL:          0  USELESS:          0
PSCL3 USEFUL LOAD PREFETCHES:          0 PREFETCH ISSUED TO LOWER LEVEL:          0  ACCURACY: -nan
PSCL3 TIMELY PREFETCHES:          0 LATE PREFETCHES: 0 DROPPED PREFETCHES: 0
PSCL3 PREFETCHES SAME FILL-ORIGIN LEVEL: 0 DIFFERENT FILL-ORIGIN LEVEL: 0

PSCL2 TOTAL     ACCESS:       9611  HIT:       9590  MISS:         21  HIT %:    99.7815  MISS %:     0.2185   MPKI: 0.00042
PSCL2 LOAD TRANSLATION ACCESS:       8734  HIT:       8713  MISS:         21  HIT %:    99.7596  MISS %:    0.24044   MPKI: 0.00042
PSCL2 TRANSLATION FROM L1D PREFETCHER ACCESS:        877  HIT:        877  MISS:          0  HIT %:        100  MISS %:          0   MPKI: 0
PSCL2 PREFETCH  REQUESTED:          0  ISSUED:          0  USEFUL:          0  USELESS:          0
PSCL2 USEFUL LOAD PREFETCHES:          0 PREFETCH ISSUED TO LOWER LEVEL:          0  ACCURACY: -nan
PSCL2 TIMELY PREFETCHES:          0 LATE PREFETCHES: 0 DROPPED PREFETCHES: 0
PSCL2 PREFETCHES SAME FILL-ORIGIN LEVEL: 0 DIFFERENT FILL-ORIGIN LEVEL: 0

LLC TOTAL     ACCESS:   12561350  HIT:    7803097  MISS:    4758253  HIT %:    62.1199  MISS %:    37.8801   MPKI: 95.1651
LLC LOAD      ACCESS:    6675168  HIT:    3510536  MISS:    3164632  HIT %:     52.591  MISS %:     47.409   MPKI: 63.2926
LLC PREFETCH  ACCESS:    5864971  HIT:    4272864  MISS:    1592107  HIT %:     72.854  MISS %:     27.146   MPKI: 31.8421
AGUS PREFETCH L1 MISS: 0
LLC WRITEBACK ACCESS:      19247  HIT:      19205  MISS:         42  HIT %:    99.7818  MISS %:   0.218216   MPKI: 0.00084
LLC LOAD TRANSLATION ACCESS:       1136  HIT:         28  MISS:       1108  HIT %:    2.46479  MISS %:    97.5352   MPKI: 0.02216
LLC TRANSLATION FROM L1D PREFETCHER ACCESS:        828  HIT:        464  MISS:        364  HIT %:    56.0386  MISS %:    43.9614   MPKI: 0.00728
LLC PREFETCH  REQUESTED:          0  ISSUED:          0  USEFUL:     341369  USELESS:    1250940
LLC USEFUL LOAD PREFETCHES:     341369 PREFETCH ISSUED TO LOWER LEVEL:    1592107  ACCURACY: 21.4413
LLC TIMELY PREFETCHES:     341369 LATE PREFETCHES: 0 DROPPED PREFETCHES: 0
LLC PREFETCHES SAME FILL-ORIGIN LEVEL: 0 DIFFERENT FILL-ORIGIN LEVEL: 0
LLC AVERAGE MISS LATENCY: 168.109 cycles
LLC RQ	ACCESS:    6677133	FORWARD:          0	MERGED:          0	TO_CACHE:    6677133
LLC WQ	ACCESS:      19247	FORWARD:          0	MERGED:          0	TO_CACHE:      19247
LLC PQ	ACCESS:    5864971	FORWARD:          0	MERGED:          0	TO_CACHE:    5864971

LLC Dense regions hint to LLC: 0

RAW hits: 0
Loads Generated: 19685200
Loads sent to L1D: 19685199
Stores Generated: 601946
Stores sent to L1D: 601946
Major fault: 0 Minor fault: 19654
Allocated PAGES: 19654
Prefetcher final stats
Training Unit Size: 69
Addr table size: 1245300 1245300


Triggers: 28747804
Structural address exists: 24711156 85.9584
No Prediction: 4036648 14.0416
Prefetches issued: 23369599 81.2918
Useful Prefetches: 444099
Useless Prefetches: 8875899
Stream end: 23537726
No translation: 2609670957
%Stream divergence: 3583380 12.4649
Stream divergence -- new stream: 0

DRAM Statistics
 CHANNEL 0
 RQ ROW_BUFFER_HIT:     506004  ROW_BUFFER_MISS:    4252207
 DBUS_CONGESTED:         18
 WQ ROW_BUFFER_HIT:       5082  ROW_BUFFER_MISS:      13761  FULL:          0

 AVG_CONGESTED_CYCLE: 5
 All warmup complete: 2
Channel 0 Bank busy for read cycles: 0
Channel 0 Bank busy for write cycles: 0
Channel 0
Rank 0
0banks busy for read cycles: 453461774
0banks busy for write cycles: 18123
1banks busy for read cycles: 320779372
1banks busy for write cycles: 3936802
2banks busy for read cycles: 104952482
2banks busy for write cycles: 125767
3banks busy for read cycles: 30578646
3banks busy for write cycles: 5033
4banks busy for read cycles: 7679160
4banks busy for write cycles: 144
5banks busy for read cycles: 1623029
5banks busy for write cycles: 0
6banks busy for read cycles: 268528
6banks busy for write cycles: 0
7banks busy for read cycles: 28755
7banks busy for write cycles: 0
8banks busy for read cycles: 8427
8banks busy for write cycles: 0

CPU 0 Branch Prediction Accuracy: 96.2992% MPKI: 7.06226 Average ROB Occupancy at Mispredict: 115.597
Branch types
NOT_BRANCH: 40458373 80.9167%
BRANCH_DIRECT_JUMP: 0 0%
BRANCH_INDIRECT: 0 0%
BRANCH_CONDITIONAL: 9541630 19.0833%
BRANCH_DIRECT_CALL: 0 0%
BRANCH_INDIRECT_CALL: 0 0%
BRANCH_RETURN: 0 0%
BRANCH_OTHER: 0 0%

DRAM PAGES: 1048576
Allocated PAGES: 19654
