
*** ChampSim Multicore Out-of-Order Simulator ***

Warmup Instructions: 50000000
Simulation Instructions: 50000000
Number of CPUs: 1
LLC sets: 2048
LLC ways: 16
Off-chip DRAM Size: 4096 MB Channels: 1 Width: 64-bit Data Rate: 6400 MT/s
CPU 0 runs ./traces/GAP/SUBSET/sssp-5.trace.gz
.gz
CPU 0 Bimodal branch predictor
BTB has LRU replacement policy
ITLB has LRU replacement policy
DTLB has LRU replacement policy
STLB has LRU replacement policy
L1I has LRU replacement policy
L1D has LRU replacement policy
Ideal ISB Prefetching
L2C has LRU replacement policy
LLC has LRU replacement policy
Heartbeat CPU 0 instructions: 10000001 cycles: 3240517 heartbeat IPC: 3.08593 cumulative IPC: 3.08593 (Simulation time: 0 hr 1 min 4 sec) 
Heartbeat CPU 0 instructions: 20000000 cycles: 6503701 heartbeat IPC: 3.06449 cumulative IPC: 3.07517 (Simulation time: 0 hr 2 min 52 sec) 
Heartbeat CPU 0 instructions: 30000001 cycles: 9790287 heartbeat IPC: 3.04267 cumulative IPC: 3.06426 (Simulation time: 0 hr 4 min 51 sec) 
Heartbeat CPU 0 instructions: 40000000 cycles: 13096908 heartbeat IPC: 3.02424 cumulative IPC: 3.05416 (Simulation time: 0 hr 6 min 57 sec) 
Heartbeat CPU 0 instructions: 50000001 cycles: 16409787 heartbeat IPC: 3.01852 cumulative IPC: 3.04696 (Simulation time: 0 hr 9 min 5 sec) 

Warmup complete CPU 0 instructions: 50000001 cycles: 16409787 (Simulation time: 0 hr 9 min 5 sec) 

Heartbeat CPU 0 instructions: 60000000 cycles: 53342279 heartbeat IPC: 0.270764 cumulative IPC: 0.270764 (Simulation time: 0 hr 11 min 41 sec) 
Heartbeat CPU 0 instructions: 70000001 cycles: 89445353 heartbeat IPC: 0.276985 cumulative IPC: 0.273839 (Simulation time: 0 hr 14 min 20 sec) 
Heartbeat CPU 0 instructions: 80000000 cycles: 125314016 heartbeat IPC: 0.278795 cumulative IPC: 0.275471 (Simulation time: 0 hr 16 min 51 sec) 
Heartbeat CPU 0 instructions: 90000001 cycles: 159998214 heartbeat IPC: 0.288316 cumulative IPC: 0.278574 (Simulation time: 0 hr 19 min 32 sec) 
Heartbeat CPU 0 instructions: 100000000 cycles: 194160142 heartbeat IPC: 0.292724 cumulative IPC: 0.281293 (Simulation time: 0 hr 22 min 15 sec) 
Finished CPU 0 instructions: 50000003 cycles: 177750372 cumulative IPC: 0.281293 (Simulation time: 0 hr 22 min 15 sec) 

ChampSim completed all CPUs

Region of Interest Statistics

CPU 0 cumulative IPC: 0.281293 instructions: 50000003 cycles: 177750372
ITLB TOTAL     ACCESS:    6110687  HIT:    6110687  MISS:          0  HIT %:        100  MISS %:          0   MPKI: 0
ITLB LOAD TRANSLATION ACCESS:    6110687  HIT:    6110687  MISS:          0  HIT %:        100  MISS %:          0   MPKI: 0
ITLB PREFETCH  REQUESTED:          0  ISSUED:          0  USEFUL:          0  USELESS:          0
ITLB USEFUL LOAD PREFETCHES:          0 PREFETCH ISSUED TO LOWER LEVEL:          0  ACCURACY: -nan
ITLB TIMELY PREFETCHES:          0 LATE PREFETCHES: 0 DROPPED PREFETCHES: 0
ITLB PREFETCHES SAME FILL-ORIGIN LEVEL: 0 DIFFERENT FILL-ORIGIN LEVEL: 0
ITLB AVERAGE MISS LATENCY: -nan cycles
ITLB RQ	ACCESS:    6366082	FORWARD:          0	MERGED:     255396	TO_CACHE:    6110686

DTLB TOTAL     ACCESS:   10828005  HIT:    9879474  MISS:     948531  HIT %:      91.24  MISS %:    8.75998   MPKI: 18.9706
DTLB LOAD TRANSLATION ACCESS:   10828005  HIT:    9879474  MISS:     948531  HIT %:      91.24  MISS %:    8.75998   MPKI: 18.9706
DTLB PREFETCH  REQUESTED:          0  ISSUED:          0  USEFUL:          0  USELESS:          0
DTLB USEFUL LOAD PREFETCHES:          0 PREFETCH ISSUED TO LOWER LEVEL:          0  ACCURACY: -nan
DTLB TIMELY PREFETCHES:          0 LATE PREFETCHES: 0 DROPPED PREFETCHES: 0
DTLB PREFETCHES SAME FILL-ORIGIN LEVEL: 0 DIFFERENT FILL-ORIGIN LEVEL: 0
DTLB AVERAGE MISS LATENCY: 11.9528 cycles
DTLB RQ	ACCESS:   11599259	FORWARD:          0	MERGED:     745547	TO_CACHE:   10853712

STLB TOTAL     ACCESS:     948531  HIT:     935213  MISS:      13318  HIT %:    98.5959  MISS %:    1.40407   MPKI: 0.26636
STLB LOAD TRANSLATION ACCESS:     948531  HIT:     935213  MISS:      13318  HIT %:    98.5959  MISS %:    1.40407   MPKI: 0.26636
STLB PREFETCH  REQUESTED:          0  ISSUED:          0  USEFUL:          0  USELESS:          0
STLB USEFUL LOAD PREFETCHES:          0 PREFETCH ISSUED TO LOWER LEVEL:          0  ACCURACY: -nan
STLB TIMELY PREFETCHES:          0 LATE PREFETCHES: 0 DROPPED PREFETCHES: 0
STLB PREFETCHES SAME FILL-ORIGIN LEVEL: 0 DIFFERENT FILL-ORIGIN LEVEL: 0
STLB AVERAGE MISS LATENCY: 192.092 cycles
STLB RQ	ACCESS:     948531	FORWARD:          0	MERGED:          0	TO_CACHE:     948531

STLB Hit, L1D data hit: 0
STLB Hit, L2C data hit: 0
STLB Hit, LLC data hit: 0
STLB Hit, LLC data miss: 0
STLB STLB hints to L2: 0
L1D TOTAL     ACCESS:   10556591  HIT:    7941403  MISS:    2615188  HIT %:     75.227  MISS %:     24.773   MPKI: 52.3038
L1D LOAD      ACCESS:    9760780  HIT:    7311217  MISS:    2449563  HIT %:     74.904  MISS %:     25.096   MPKI: 48.9913
L1D RFO       ACCESS:     795811  HIT:     630186  MISS:     165625  HIT %:    79.1879  MISS %:    20.8121   MPKI: 3.3125
L1D PREFETCH  REQUESTED:          0  ISSUED:          0  USEFUL:          0  USELESS:          0
L1D USEFUL LOAD PREFETCHES:          0 PREFETCH ISSUED TO LOWER LEVEL:          0  ACCURACY: -nan
L1D TIMELY PREFETCHES:          0 LATE PREFETCHES: 0 DROPPED PREFETCHES: 0
L1D PREFETCHES SAME FILL-ORIGIN LEVEL: 0 DIFFERENT FILL-ORIGIN LEVEL: 0
L1D AVERAGE MISS LATENCY: 100.409 cycles
L1D RQ	ACCESS:   18732318	FORWARD:          0	MERGED:    7995004	TO_CACHE:   10736572
L1D WQ	ACCESS:     863041	FORWARD:        742	MERGED:        354	TO_CACHE:     862687

L1D UNIQUE REGIONS ACCESSED: 0
L1D REGIONS CONFLICTS: 0
L1D Cross Page Prefetch Requests: 0
L1D Same Page Prefetch Requests: 0
L1D ROI Sum of L1D PQ occupancy: 0
L1D PREFETCHES PUSHED FROM L2C: 0
L1I TOTAL     ACCESS:    6366083  HIT:    6366083  MISS:          0  HIT %:        100  MISS %:          0   MPKI: 0
L1I LOAD      ACCESS:    6366083  HIT:    6366083  MISS:          0  HIT %:        100  MISS %:          0   MPKI: 0
L1I PREFETCH  REQUESTED:          0  ISSUED:          0  USEFUL:          0  USELESS:          0
L1I USEFUL LOAD PREFETCHES:          0 PREFETCH ISSUED TO LOWER LEVEL:          0  ACCURACY: -nan
L1I TIMELY PREFETCHES:          0 LATE PREFETCHES: 0 DROPPED PREFETCHES: 0
L1I PREFETCHES SAME FILL-ORIGIN LEVEL: 0 DIFFERENT FILL-ORIGIN LEVEL: 0
L1I AVERAGE MISS LATENCY: -nan cycles
L1I RQ	ACCESS:    9929471	FORWARD:          0	MERGED:    3563389	TO_CACHE:    6366082

BTB TOTAL     ACCESS:    7129635  HIT:    7129514  MISS:        121  HIT %:    99.9983  MISS %: 0.00169714   MPKI: 0.00242
BTB BRANCH_DIRECT_JUMP	ACCESS:    2201631  HIT:    2201598  MISS:         33
BTB BRANCH_INDIRECT	ACCESS:          0  HIT:          0  MISS:          0
BTB BRANCH_CONDITIONAL	ACCESS:    4926646  HIT:    4926572  MISS:         74
BTB BRANCH_DIRECT_CALL	ACCESS:        679  HIT:        674  MISS:          5
BTB BRANCH_INDIRECT_CALL	ACCESS:          0  HIT:          0  MISS:          0
BTB BRANCH_RETURN	ACCESS:        679  HIT:        670  MISS:          9
BTB BRANCH_OTHER ACCESS:          0  HIT:          0  MISS:          0

L2C TOTAL     ACCESS:    5579854  HIT:    1946396  MISS:    3633458  HIT %:    34.8826  MISS %:    65.1174   MPKI: 72.6692
L2C LOAD      ACCESS:    2449563  HIT:     540165  MISS:    1909398  HIT %:    22.0515  MISS %:    77.9485   MPKI: 38.188
L2C DATA LOAD MPKI: 38.188
L2C INSTRUCTION LOAD MPKI: 0
L2C RFO       ACCESS:     165625  HIT:      96279  MISS:      69346  HIT %:    58.1307  MISS %:    41.8693   MPKI: 1.38692
L2C PREFETCH  ACCESS:    2462383  HIT:     819208  MISS:    1643175  HIT %:    33.2689  MISS %:    66.7311   MPKI: 32.8635
AGUS PREFETCH L1 MISS: 0
L2C DATA PREFETCH MPKI: 32.8635
L2C INSTRUCTION PREFETCH MPKI: 0
L2C WRITEBACK ACCESS:     487012  HIT:     485145  MISS:       1867  HIT %:    99.6166  MISS %:   0.383358   MPKI: 0.03734
L2C LOAD TRANSLATION ACCESS:      15271  HIT:       5599  MISS:       9672  HIT %:    36.6643  MISS %:    63.3357   MPKI: 0.19344
L2C PREFETCH  REQUESTED:    2632252  ISSUED:    2627289  USEFUL:     257319  USELESS:    1384585
L2C USEFUL LOAD PREFETCHES:     257319 PREFETCH ISSUED TO LOWER LEVEL:    1658167  ACCURACY: 15.5183
L2C TIMELY PREFETCHES:     257319 LATE PREFETCHES: 14992 DROPPED PREFETCHES: 0
L2C PREFETCHES SAME FILL-ORIGIN LEVEL: 1658167 DIFFERENT FILL-ORIGIN LEVEL: 0
L2C AVERAGE MISS LATENCY: 94.7622 cycles
L2C RQ	ACCESS:    2630460	FORWARD:          0	MERGED:          0	TO_CACHE:    2630460
L2C WQ	ACCESS:     487012	FORWARD:          0	MERGED:          0	TO_CACHE:     487012
L2C PQ	ACCESS:    2627289	FORWARD:          0	MERGED:      92460	TO_CACHE:    2534829

L2C Instructions Evicting Data 0
L2C Translations Evicting Data 9609
L2C Data Evicting Data 3612311
L2C Instructions Evicting Instructions 0
L2C Translations Evicting Instructions 0
L2C Data Evicting Instructions 0
L2C Instructions Evicting Translations 0
L2C Translations Evicting Translations 63
L2C Data Evicting Translations 9608
L2C Dense regions hint from L2: 0
PSCL5 TOTAL     ACCESS:      13318  HIT:      13318  MISS:          0  HIT %:        100  MISS %:          0   MPKI: 0
PSCL5 LOAD TRANSLATION ACCESS:      13318  HIT:      13318  MISS:          0  HIT %:        100  MISS %:          0   MPKI: 0
PSCL5 PREFETCH  REQUESTED:          0  ISSUED:          0  USEFUL:          0  USELESS:          0
PSCL5 USEFUL LOAD PREFETCHES:          0 PREFETCH ISSUED TO LOWER LEVEL:          0  ACCURACY: -nan
PSCL5 TIMELY PREFETCHES:          0 LATE PREFETCHES: 0 DROPPED PREFETCHES: 0
PSCL5 PREFETCHES SAME FILL-ORIGIN LEVEL: 0 DIFFERENT FILL-ORIGIN LEVEL: 0

PSCL4 TOTAL     ACCESS:      13318  HIT:      13318  MISS:          0  HIT %:        100  MISS %:          0   MPKI: 0
PSCL4 LOAD TRANSLATION ACCESS:      13318  HIT:      13318  MISS:          0  HIT %:        100  MISS %:          0   MPKI: 0
PSCL4 PREFETCH  REQUESTED:          0  ISSUED:          0  USEFUL:          0  USELESS:          0
PSCL4 USEFUL LOAD PREFETCHES:          0 PREFETCH ISSUED TO LOWER LEVEL:          0  ACCURACY: -nan
PSCL4 TIMELY PREFETCHES:          0 LATE PREFETCHES: 0 DROPPED PREFETCHES: 0
PSCL4 PREFETCHES SAME FILL-ORIGIN LEVEL: 0 DIFFERENT FILL-ORIGIN LEVEL: 0

PSCL3 TOTAL     ACCESS:      13318  HIT:      13318  MISS:          0  HIT %:        100  MISS %:          0   MPKI: 0
PSCL3 LOAD TRANSLATION ACCESS:      13318  HIT:      13318  MISS:          0  HIT %:        100  MISS %:          0   MPKI: 0
PSCL3 PREFETCH  REQUESTED:          0  ISSUED:          0  USEFUL:          0  USELESS:          0
PSCL3 USEFUL LOAD PREFETCHES:          0 PREFETCH ISSUED TO LOWER LEVEL:          0  ACCURACY: -nan
PSCL3 TIMELY PREFETCHES:          0 LATE PREFETCHES: 0 DROPPED PREFETCHES: 0
PSCL3 PREFETCHES SAME FILL-ORIGIN LEVEL: 0 DIFFERENT FILL-ORIGIN LEVEL: 0

PSCL2 TOTAL     ACCESS:      13318  HIT:      11364  MISS:       1954  HIT %:    85.3281  MISS %:    14.6719   MPKI: 0.03908
PSCL2 LOAD TRANSLATION ACCESS:      13318  HIT:      11364  MISS:       1954  HIT %:    85.3281  MISS %:    14.6719   MPKI: 0.03908
PSCL2 PREFETCH  REQUESTED:          0  ISSUED:          0  USEFUL:          0  USELESS:          0
PSCL2 USEFUL LOAD PREFETCHES:          0 PREFETCH ISSUED TO LOWER LEVEL:          0  ACCURACY: -nan
PSCL2 TIMELY PREFETCHES:          0 LATE PREFETCHES: 0 DROPPED PREFETCHES: 0
PSCL2 PREFETCHES SAME FILL-ORIGIN LEVEL: 0 DIFFERENT FILL-ORIGIN LEVEL: 0

LLC TOTAL     ACCESS:    3960839  HIT:    2439289  MISS:    1521550  HIT %:    61.5852  MISS %:    38.4148   MPKI: 30.431
LLC LOAD      ACCESS:    1894407  HIT:     868699  MISS:    1025708  HIT %:     45.856  MISS %:     54.144   MPKI: 20.5142
LLC RFO       ACCESS:      69345  HIT:      31169  MISS:      38176  HIT %:    44.9477  MISS %:    55.0523   MPKI: 0.76352
LLC PREFETCH  ACCESS:    1658167  HIT:    1210762  MISS:     447405  HIT %:    73.0181  MISS %:    26.9819   MPKI: 8.9481
AGUS PREFETCH L1 MISS: 0
LLC WRITEBACK ACCESS:     329248  HIT:     326533  MISS:       2715  HIT %:    99.1754  MISS %:   0.824606   MPKI: 0.0543
LLC LOAD TRANSLATION ACCESS:       9672  HIT:       2126  MISS:       7546  HIT %:     21.981  MISS %:     78.019   MPKI: 0.15092
LLC PREFETCH  REQUESTED:          0  ISSUED:          0  USEFUL:     113598  USELESS:     335640
LLC USEFUL LOAD PREFETCHES:     113598 PREFETCH ISSUED TO LOWER LEVEL:     447405  ACCURACY: 25.3904
LLC TIMELY PREFETCHES:     113598 LATE PREFETCHES: 0 DROPPED PREFETCHES: 0
LLC PREFETCHES SAME FILL-ORIGIN LEVEL: 0 DIFFERENT FILL-ORIGIN LEVEL: 0
LLC AVERAGE MISS LATENCY: 154.552 cycles
LLC RQ	ACCESS:    1973424	FORWARD:          0	MERGED:          0	TO_CACHE:    1973424
LLC WQ	ACCESS:     329248	FORWARD:          0	MERGED:          0	TO_CACHE:     329248
LLC PQ	ACCESS:    1658167	FORWARD:          0	MERGED:          0	TO_CACHE:    1658167

LLC Dense regions hint to LLC: 0

RAW hits: 10576
Loads Generated: 18742895
Loads sent to L1D: 18732318
Stores Generated: 863037
Stores sent to L1D: 863041
Major fault: 0 Minor fault: 14991
Allocated PAGES: 14991
Prefetcher final stats
Training Unit Size: 227
Addr table size: 609209 609230


Triggers: 4542515
Structural address exists: 3577106 78.7473
No Prediction: 965409 21.2527
Prefetches issued: 5179631 114.026
Useful Prefetches: 257319
Useless Prefetches: 1384585
Stream end: 3476216
No translation: 3531083898
%Stream divergence: 963518 21.2111
Stream divergence -- new stream: 0

DRAM Statistics
 CHANNEL 0
 RQ ROW_BUFFER_HIT:     504359  ROW_BUFFER_MISS:    1014460
 DBUS_CONGESTED:        984
 WQ ROW_BUFFER_HIT:      78055  ROW_BUFFER_MISS:     199171  FULL:          0

 AVG_CONGESTED_CYCLE: 4
 All warmup complete: 2
Channel 0 Bank busy for read cycles: 0
Channel 0 Bank busy for write cycles: 0
Channel 0
Rank 0
0banks busy for read cycles: 38157329
0banks busy for write cycles: 121889
1banks busy for read cycles: 59583764
1banks busy for write cycles: 20898630
2banks busy for read cycles: 23440688
2banks busy for write cycles: 9493694
3banks busy for read cycles: 10864356
3banks busy for write cycles: 4142194
4banks busy for read cycles: 4862188
4banks busy for write cycles: 1695770
5banks busy for read cycles: 1937818
5banks busy for write cycles: 650596
6banks busy for read cycles: 693331
6banks busy for write cycles: 238377
7banks busy for read cycles: 264488
7banks busy for write cycles: 113110
8banks busy for read cycles: 408906
8banks busy for write cycles: 183245

CPU 0 Branch Prediction Accuracy: 96.1377% MPKI: 5.72194 Average ROB Occupancy at Mispredict: 107.321
Branch types
NOT_BRANCH: 42592393 85.1848%
BRANCH_DIRECT_JUMP: 2201631 4.40326%
BRANCH_INDIRECT: 0 0%
BRANCH_CONDITIONAL: 5204342 10.4087%
BRANCH_DIRECT_CALL: 679 0.001358%
BRANCH_INDIRECT_CALL: 0 0%
BRANCH_RETURN: 679 0.001358%
BRANCH_OTHER: 0 0%

DRAM PAGES: 1048576
Allocated PAGES: 14991
