
*** ChampSim Multicore Out-of-Order Simulator ***

Warmup Instructions: 50000000
Simulation Instructions: 50000000
Number of CPUs: 1
LLC sets: 2048
LLC ways: 16
Off-chip DRAM Size: 4096 MB Channels: 1 Width: 64-bit Data Rate: 6400 MT/s
CPU 0 runs ./traces/GAP/SUBSET/sssp-5.trace.gz
.gz
CPU 0 Bimodal branch predictor
BTB has LRU replacement policy
ITLB has LRU replacement policy
DTLB has LRU replacement policy
STLB has LRU replacement policy
L1I has LRU replacement policy
Ideal ISB Prefetching
L1D has LRU replacement policy
L2C has LRU replacement policy
LLC has LRU replacement policy
Heartbeat CPU 0 instructions: 10000001 cycles: 3241363 heartbeat IPC: 3.08512 cumulative IPC: 3.08512 (Simulation time: 0 hr 3 min 5 sec) 
Heartbeat CPU 0 instructions: 20000000 cycles: 6503531 heartbeat IPC: 3.06545 cumulative IPC: 3.07525 (Simulation time: 0 hr 7 min 42 sec) 
Heartbeat CPU 0 instructions: 30000001 cycles: 9789478 heartbeat IPC: 3.04326 cumulative IPC: 3.06451 (Simulation time: 0 hr 12 min 35 sec) 
Heartbeat CPU 0 instructions: 40000000 cycles: 13095540 heartbeat IPC: 3.02475 cumulative IPC: 3.05448 (Simulation time: 0 hr 17 min 32 sec) 
Heartbeat CPU 0 instructions: 50000001 cycles: 16407692 heartbeat IPC: 3.01919 cumulative IPC: 3.04735 (Simulation time: 0 hr 22 min 33 sec) 

Warmup complete CPU 0 instructions: 50000001 cycles: 16407692 (Simulation time: 0 hr 22 min 33 sec) 

Heartbeat CPU 0 instructions: 60000000 cycles: 53208765 heartbeat IPC: 0.271731 cumulative IPC: 0.271731 (Simulation time: 0 hr 28 min 0 sec) 
Heartbeat CPU 0 instructions: 70000001 cycles: 89246225 heartbeat IPC: 0.277489 cumulative IPC: 0.27458 (Simulation time: 0 hr 33 min 39 sec) 
Heartbeat CPU 0 instructions: 80000000 cycles: 124982656 heartbeat IPC: 0.279826 cumulative IPC: 0.276307 (Simulation time: 0 hr 39 min 0 sec) 
Heartbeat CPU 0 instructions: 90000001 cycles: 159650116 heartbeat IPC: 0.288455 cumulative IPC: 0.279247 (Simulation time: 0 hr 44 min 21 sec) 
Heartbeat CPU 0 instructions: 100000000 cycles: 193742432 heartbeat IPC: 0.293321 cumulative IPC: 0.281953 (Simulation time: 0 hr 49 min 46 sec) 
Finished CPU 0 instructions: 50000003 cycles: 177334757 cumulative IPC: 0.281953 (Simulation time: 0 hr 49 min 46 sec) 

ChampSim completed all CPUs

Region of Interest Statistics

CPU 0 cumulative IPC: 0.281953 instructions: 50000003 cycles: 177334757
ITLB TOTAL     ACCESS:    6110157  HIT:    6110157  MISS:          0  HIT %:        100  MISS %:          0   MPKI: 0
ITLB LOAD TRANSLATION ACCESS:    6110157  HIT:    6110157  MISS:          0  HIT %:        100  MISS %:          0   MPKI: 0
ITLB PREFETCH  REQUESTED:          0  ISSUED:          0  USEFUL:          0  USELESS:          0
ITLB USEFUL LOAD PREFETCHES:          0 PREFETCH ISSUED TO LOWER LEVEL:          0  ACCURACY: -nan
ITLB TIMELY PREFETCHES:          0 LATE PREFETCHES: 0 DROPPED PREFETCHES: 0
ITLB PREFETCHES SAME FILL-ORIGIN LEVEL: 0 DIFFERENT FILL-ORIGIN LEVEL: 0
ITLB AVERAGE MISS LATENCY: -nan cycles
ITLB RQ	ACCESS:    6365554	FORWARD:          0	MERGED:     255397	TO_CACHE:    6110157

DTLB TOTAL     ACCESS:   10819906  HIT:    9871372  MISS:     948534  HIT %:    91.2334  MISS %:    8.76656   MPKI: 18.9707
DTLB LOAD TRANSLATION ACCESS:   10819906  HIT:    9871372  MISS:     948534  HIT %:    91.2334  MISS %:    8.76656   MPKI: 18.9707
DTLB PREFETCH  REQUESTED:          0  ISSUED:          0  USEFUL:          0  USELESS:          0
DTLB USEFUL LOAD PREFETCHES:          0 PREFETCH ISSUED TO LOWER LEVEL:          0  ACCURACY: -nan
DTLB TIMELY PREFETCHES:          0 LATE PREFETCHES: 0 DROPPED PREFETCHES: 0
DTLB PREFETCHES SAME FILL-ORIGIN LEVEL: 0 DIFFERENT FILL-ORIGIN LEVEL: 0
DTLB AVERAGE MISS LATENCY: 11.7112 cycles
DTLB RQ	ACCESS:   11592322	FORWARD:          0	MERGED:     747443	TO_CACHE:   10844879

STLB TOTAL     ACCESS:    3638909  HIT:    3624346  MISS:      14563  HIT %:    99.5998  MISS %:   0.400202   MPKI: 0.29126
STLB LOAD TRANSLATION ACCESS:     948534  HIT:     936435  MISS:      12099  HIT %:    98.7245  MISS %:    1.27555   MPKI: 0.24198
STLB TRANSLATION FROM L1D PREFETCHER ACCESS:    2690375  HIT:    2687911  MISS:       2464  HIT %:    99.9084  MISS %:  0.0915857   MPKI: 0.04928
STLB PREFETCH  REQUESTED:          0  ISSUED:          0  USEFUL:       1869  USELESS:        590
STLB USEFUL LOAD PREFETCHES:       1869 PREFETCH ISSUED TO LOWER LEVEL:          0  ACCURACY: inf
STLB TIMELY PREFETCHES:       1869 LATE PREFETCHES: 83 DROPPED PREFETCHES: 0
STLB PREFETCHES SAME FILL-ORIGIN LEVEL: 0 DIFFERENT FILL-ORIGIN LEVEL: 0
STLB AVERAGE MISS LATENCY: 211.92 cycles
STLB RQ	ACCESS:    4784664	FORWARD:          0	MERGED:    1145556	TO_CACHE:    3639108

STLB Hit, L1D data hit: 0
STLB Hit, L2C data hit: 0
STLB Hit, LLC data hit: 0
STLB Hit, LLC data miss: 0
STLB STLB hints to L2: 0
L1D TOTAL     ACCESS:   14055150  HIT:    9614758  MISS:    4440392  HIT %:    68.4074  MISS %:    31.5926   MPKI: 88.8078
L1D LOAD      ACCESS:    9759571  HIT:    7505907  MISS:    2253664  HIT %:    76.9082  MISS %:    23.0918   MPKI: 45.0733
L1D RFO       ACCESS:     795917  HIT:     602015  MISS:     193902  HIT %:    75.6379  MISS %:    24.3621   MPKI: 3.87804
L1D PREFETCH  ACCESS:    3499662  HIT:    1506836  MISS:    1992826  HIT %:    43.0566  MISS %:    56.9434   MPKI: 39.8565
AGUS PREFETCH L1 MISS: 0
L1D PREFETCH  REQUESTED:    8264755  ISSUED:    8040590  USEFUL:     224697  USELESS:    1767987
L1D USEFUL LOAD PREFETCHES:     224697 PREFETCH ISSUED TO LOWER LEVEL:    2006967  ACCURACY: 11.1958
L1D TIMELY PREFETCHES:     224697 LATE PREFETCHES: 14141 DROPPED PREFETCHES: 0
L1D PREFETCHES SAME FILL-ORIGIN LEVEL: 2006967 DIFFERENT FILL-ORIGIN LEVEL: 0
L1D AVERAGE MISS LATENCY: 91.5445 cycles
L1D RQ	ACCESS:   18732015	FORWARD:          0	MERGED:    8001797	TO_CACHE:   10729633
L1D WQ	ACCESS:     863041	FORWARD:        585	MERGED:        352	TO_CACHE:     862689
L1D PQ	ACCESS:    4204460	FORWARD:          0	MERGED:     368330	TO_CACHE:    3836130

L1D UNIQUE REGIONS ACCESSED: 0
L1D REGIONS CONFLICTS: 0
L1D Cross Page Prefetch Requests: 4828939
L1D Same Page Prefetch Requests: 3908072
L1D ROI Sum of L1D PQ occupancy: 55082453
L1D PREFETCHES PUSHED FROM L2C: 0
L1I TOTAL     ACCESS:    6365554  HIT:    6365554  MISS:          0  HIT %:        100  MISS %:          0   MPKI: 0
L1I LOAD      ACCESS:    6365554  HIT:    6365554  MISS:          0  HIT %:        100  MISS %:          0   MPKI: 0
L1I PREFETCH  REQUESTED:          0  ISSUED:          0  USEFUL:          0  USELESS:          0
L1I USEFUL LOAD PREFETCHES:          0 PREFETCH ISSUED TO LOWER LEVEL:          0  ACCURACY: -nan
L1I TIMELY PREFETCHES:          0 LATE PREFETCHES: 0 DROPPED PREFETCHES: 0
L1I PREFETCHES SAME FILL-ORIGIN LEVEL: 0 DIFFERENT FILL-ORIGIN LEVEL: 0
L1I AVERAGE MISS LATENCY: -nan cycles
L1I RQ	ACCESS:    9927566	FORWARD:          0	MERGED:    3562012	TO_CACHE:    6365554

BTB TOTAL     ACCESS:    7129635  HIT:    7129514  MISS:        121  HIT %:    99.9983  MISS %: 0.00169714   MPKI: 0.00242
BTB BRANCH_DIRECT_JUMP	ACCESS:    2201631  HIT:    2201598  MISS:         33
BTB BRANCH_INDIRECT	ACCESS:          0  HIT:          0  MISS:          0
BTB BRANCH_CONDITIONAL	ACCESS:    4926646  HIT:    4926572  MISS:         74
BTB BRANCH_DIRECT_CALL	ACCESS:        679  HIT:        674  MISS:          5
BTB BRANCH_INDIRECT_CALL	ACCESS:          0  HIT:          0  MISS:          0
BTB BRANCH_RETURN	ACCESS:        679  HIT:        670  MISS:          9
BTB BRANCH_OTHER ACCESS:          0  HIT:          0  MISS:          0

L2C TOTAL     ACCESS:    4988973  HIT:    1457034  MISS:    3531939  HIT %:    29.2051  MISS %:    70.7949   MPKI: 70.6388
L2C LOAD      ACCESS:    2239522  HIT:     346120  MISS:    1893402  HIT %:    15.4551  MISS %:    84.5449   MPKI: 37.868
L2C DATA LOAD MPKI: 37.868
L2C INSTRUCTION LOAD MPKI: 0
L2C RFO       ACCESS:     193897  HIT:     126318  MISS:      67579  HIT %:     65.147  MISS %:     34.853   MPKI: 1.35158
L2C PREFETCH  ACCESS:    2006963  HIT:     448423  MISS:    1558540  HIT %:    22.3434  MISS %:    77.6566   MPKI: 31.1708
AGUS PREFETCH L1 MISS: 0
L2C DATA PREFETCH MPKI: 31.1708
L2C INSTRUCTION PREFETCH MPKI: 0
L2C WRITEBACK ACCESS:     532041  HIT:     530293  MISS:       1748  HIT %:    99.6715  MISS %:   0.328546   MPKI: 0.03496
L2C LOAD TRANSLATION ACCESS:      13891  HIT:       5513  MISS:       8378  HIT %:    39.6876  MISS %:    60.3124   MPKI: 0.16756
L2C TRANSLATION FROM L1D PREFETCHER ACCESS:       2659  HIT:        367  MISS:       2292  HIT %:    13.8022  MISS %:    86.1978   MPKI: 0.04584
L2C PREFETCH  REQUESTED:          0  ISSUED:          0  USEFUL:      71389  USELESS:    1489495
L2C USEFUL LOAD PREFETCHES:      71389 PREFETCH ISSUED TO LOWER LEVEL:    1558540  ACCURACY: 4.5805
L2C TIMELY PREFETCHES:      71389 LATE PREFETCHES: 0 DROPPED PREFETCHES: 0
L2C PREFETCHES SAME FILL-ORIGIN LEVEL: 0 DIFFERENT FILL-ORIGIN LEVEL: 0
L2C AVERAGE MISS LATENCY: 96.2695 cycles
L2C RQ	ACCESS:    2449976	FORWARD:          0	MERGED:          0	TO_CACHE:    2449970
L2C WQ	ACCESS:     532041	FORWARD:         10	MERGED:          0	TO_CACHE:     532041
L2C PQ	ACCESS:    2006967	FORWARD:          0	MERGED:          0	TO_CACHE:    2006963

L2C Instructions Evicting Data 0
L2C Translations Evicting Data 10610
L2C Data Evicting Data 3508912
L2C Instructions Evicting Instructions 0
L2C Translations Evicting Instructions 0
L2C Data Evicting Instructions 0
L2C Instructions Evicting Translations 0
L2C Translations Evicting Translations 60
L2C Data Evicting Translations 10609
L2C Dense regions hint from L2: 0
PSCL5 TOTAL     ACCESS:      14563  HIT:      14563  MISS:          0  HIT %:        100  MISS %:          0   MPKI: 0
PSCL5 LOAD TRANSLATION ACCESS:      12016  HIT:      12016  MISS:          0  HIT %:        100  MISS %:          0   MPKI: 0
PSCL5 TRANSLATION FROM L1D PREFETCHER ACCESS:       2547  HIT:       2547  MISS:          0  HIT %:        100  MISS %:          0   MPKI: 0
PSCL5 PREFETCH  REQUESTED:          0  ISSUED:          0  USEFUL:          0  USELESS:          0
PSCL5 USEFUL LOAD PREFETCHES:          0 PREFETCH ISSUED TO LOWER LEVEL:          0  ACCURACY: -nan
PSCL5 TIMELY PREFETCHES:          0 LATE PREFETCHES: 0 DROPPED PREFETCHES: 0
PSCL5 PREFETCHES SAME FILL-ORIGIN LEVEL: 0 DIFFERENT FILL-ORIGIN LEVEL: 0

PSCL4 TOTAL     ACCESS:      14563  HIT:      14563  MISS:          0  HIT %:        100  MISS %:          0   MPKI: 0
PSCL4 LOAD TRANSLATION ACCESS:      12016  HIT:      12016  MISS:          0  HIT %:        100  MISS %:          0   MPKI: 0
PSCL4 TRANSLATION FROM L1D PREFETCHER ACCESS:       2547  HIT:       2547  MISS:          0  HIT %:        100  MISS %:          0   MPKI: 0
PSCL4 PREFETCH  REQUESTED:          0  ISSUED:          0  USEFUL:          0  USELESS:          0
PSCL4 USEFUL LOAD PREFETCHES:          0 PREFETCH ISSUED TO LOWER LEVEL:          0  ACCURACY: -nan
PSCL4 TIMELY PREFETCHES:          0 LATE PREFETCHES: 0 DROPPED PREFETCHES: 0
PSCL4 PREFETCHES SAME FILL-ORIGIN LEVEL: 0 DIFFERENT FILL-ORIGIN LEVEL: 0

PSCL3 TOTAL     ACCESS:      14563  HIT:      14563  MISS:          0  HIT %:        100  MISS %:          0   MPKI: 0
PSCL3 LOAD TRANSLATION ACCESS:      12016  HIT:      12016  MISS:          0  HIT %:        100  MISS %:          0   MPKI: 0
PSCL3 TRANSLATION FROM L1D PREFETCHER ACCESS:       2547  HIT:       2547  MISS:          0  HIT %:        100  MISS %:          0   MPKI: 0
PSCL3 PREFETCH  REQUESTED:          0  ISSUED:          0  USEFUL:          0  USELESS:          0
PSCL3 USEFUL LOAD PREFETCHES:          0 PREFETCH ISSUED TO LOWER LEVEL:          0  ACCURACY: -nan
PSCL3 TIMELY PREFETCHES:          0 LATE PREFETCHES: 0 DROPPED PREFETCHES: 0
PSCL3 PREFETCHES SAME FILL-ORIGIN LEVEL: 0 DIFFERENT FILL-ORIGIN LEVEL: 0

PSCL2 TOTAL     ACCESS:      14563  HIT:      12575  MISS:       1988  HIT %:     86.349  MISS %:     13.651   MPKI: 0.03976
PSCL2 LOAD TRANSLATION ACCESS:      12128  HIT:      10140  MISS:       1988  HIT %:    83.6082  MISS %:    16.3918   MPKI: 0.03976
PSCL2 TRANSLATION FROM L1D PREFETCHER ACCESS:       2435  HIT:       2435  MISS:          0  HIT %:        100  MISS %:          0   MPKI: 0
PSCL2 PREFETCH  REQUESTED:          0  ISSUED:          0  USEFUL:          0  USELESS:          0
PSCL2 USEFUL LOAD PREFETCHES:          0 PREFETCH ISSUED TO LOWER LEVEL:          0  ACCURACY: -nan
PSCL2 TIMELY PREFETCHES:          0 LATE PREFETCHES: 0 DROPPED PREFETCHES: 0
PSCL2 PREFETCHES SAME FILL-ORIGIN LEVEL: 0 DIFFERENT FILL-ORIGIN LEVEL: 0

LLC TOTAL     ACCESS:    3857472  HIT:    2339358  MISS:    1518114  HIT %:    60.6448  MISS %:    39.3552   MPKI: 30.3623
LLC LOAD      ACCESS:    1893402  HIT:     866248  MISS:    1027154  HIT %:    45.7509  MISS %:    54.2491   MPKI: 20.5431
LLC RFO       ACCESS:      67578  HIT:      29478  MISS:      38100  HIT %:    43.6207  MISS %:    56.3793   MPKI: 0.762
LLC PREFETCH  ACCESS:    1558540  HIT:    1116621  MISS:     441919  HIT %:    71.6453  MISS %:    28.3547   MPKI: 8.83838
AGUS PREFETCH L1 MISS: 0
LLC WRITEBACK ACCESS:     327282  HIT:     324452  MISS:       2830  HIT %:    99.1353  MISS %:   0.864698   MPKI: 0.0566
LLC LOAD TRANSLATION ACCESS:       8378  HIT:       1912  MISS:       6466  HIT %:    22.8217  MISS %:    77.1783   MPKI: 0.12932
LLC TRANSLATION FROM L1D PREFETCHER ACCESS:       2292  HIT:        647  MISS:       1645  HIT %:    28.2286  MISS %:    71.7714   MPKI: 0.0329
LLC PREFETCH  REQUESTED:          0  ISSUED:          0  USEFUL:     113641  USELESS:     332115
LLC USEFUL LOAD PREFETCHES:     113641 PREFETCH ISSUED TO LOWER LEVEL:     441919  ACCURACY: 25.7153
LLC TIMELY PREFETCHES:     113641 LATE PREFETCHES: 0 DROPPED PREFETCHES: 0
LLC PREFETCHES SAME FILL-ORIGIN LEVEL: 0 DIFFERENT FILL-ORIGIN LEVEL: 0
LLC AVERAGE MISS LATENCY: 154.08 cycles
LLC RQ	ACCESS:    1971651	FORWARD:          0	MERGED:          0	TO_CACHE:    1971650
LLC WQ	ACCESS:     327282	FORWARD:          1	MERGED:          0	TO_CACHE:     327282
LLC PQ	ACCESS:    1558540	FORWARD:          0	MERGED:          0	TO_CACHE:    1558540

LLC Dense regions hint to LLC: 0

RAW hits: 10879
Loads Generated: 18742895
Loads sent to L1D: 18732015
Stores Generated: 863037
Stores sent to L1D: 863041
Major fault: 0 Minor fault: 14991
Allocated PAGES: 14991
Prefetcher final stats
Training Unit Size: 241
Addr table size: 609491 609509


Triggers: 20824240
Structural address exists: 11700973 56.1892
No Prediction: 9123267 43.8108
Prefetches issued: 8737011 41.956
Useful Prefetches: 224697
Useless Prefetches: 1767987
Stream end: 11507149
No translation: 833779733
%Stream divergence: 898560 4.31497
Stream divergence -- new stream: 0

DRAM Statistics
 CHANNEL 0
 RQ ROW_BUFFER_HIT:     497965  ROW_BUFFER_MISS:    1017302
 DBUS_CONGESTED:       1091
 WQ ROW_BUFFER_HIT:      78938  ROW_BUFFER_MISS:     198077  FULL:          0

 AVG_CONGESTED_CYCLE: 4
 All warmup complete: 2
Channel 0 Bank busy for read cycles: 0
Channel 0 Bank busy for write cycles: 0
Channel 0
Rank 0
0banks busy for read cycles: 37250431
0banks busy for write cycles: 120492
1banks busy for read cycles: 59769745
1banks busy for write cycles: 20694064
2banks busy for read cycles: 23931050
2banks busy for write cycles: 9608511
3banks busy for read cycles: 11030734
3banks busy for write cycles: 4167873
4banks busy for read cycles: 4782810
4banks busy for write cycles: 1683904
5banks busy for read cycles: 1830244
5banks busy for write cycles: 645850
6banks busy for read cycles: 641046
6banks busy for write cycles: 248011
7banks busy for read cycles: 251454
7banks busy for write cycles: 119039
8banks busy for read cycles: 371649
8banks busy for write cycles: 187851

CPU 0 Branch Prediction Accuracy: 96.1377% MPKI: 5.72194 Average ROB Occupancy at Mispredict: 107.233
Branch types
NOT_BRANCH: 42592395 85.1848%
BRANCH_DIRECT_JUMP: 2201631 4.40326%
BRANCH_INDIRECT: 0 0%
BRANCH_CONDITIONAL: 5204342 10.4087%
BRANCH_DIRECT_CALL: 679 0.001358%
BRANCH_INDIRECT_CALL: 0 0%
BRANCH_RETURN: 679 0.001358%
BRANCH_OTHER: 0 0%

DRAM PAGES: 1048576
Allocated PAGES: 14991
