
*** ChampSim Multicore Out-of-Order Simulator ***

Warmup Instructions: 50000000
Simulation Instructions: 50000000
Number of CPUs: 1
LLC sets: 2048
LLC ways: 16
Off-chip DRAM Size: 4096 MB Channels: 1 Width: 64-bit Data Rate: 6400 MT/s
CPU 0 runs ./traces/GAP/SUBSET/sssp-5.trace.gz
.gz
CPU 0 Bimodal branch predictor
BTB has LRU replacement policy
ITLB has LRU replacement policy
DTLB has LRU replacement policy
STLB has LRU replacement policy
L1I has LRU replacement policy
L1D has LRU replacement policy
Ideal ISB Prefetching
L2C has LRU replacement policy
LLC has LRU replacement policy
Heartbeat CPU 0 instructions: 10000001 cycles: 3240749 heartbeat IPC: 3.08571 cumulative IPC: 3.08571 (Simulation time: 0 hr 1 min 0 sec) 
Heartbeat CPU 0 instructions: 20000000 cycles: 6503918 heartbeat IPC: 3.06451 cumulative IPC: 3.07507 (Simulation time: 0 hr 2 min 37 sec) 
Heartbeat CPU 0 instructions: 30000001 cycles: 9790765 heartbeat IPC: 3.04243 cumulative IPC: 3.06411 (Simulation time: 0 hr 4 min 27 sec) 
Heartbeat CPU 0 instructions: 40000000 cycles: 13097517 heartbeat IPC: 3.02412 cumulative IPC: 3.05401 (Simulation time: 0 hr 6 min 24 sec) 
Heartbeat CPU 0 instructions: 50000001 cycles: 16410617 heartbeat IPC: 3.01832 cumulative IPC: 3.04681 (Simulation time: 0 hr 8 min 23 sec) 

Warmup complete CPU 0 instructions: 50000001 cycles: 16410617 (Simulation time: 0 hr 8 min 23 sec) 

Heartbeat CPU 0 instructions: 60000000 cycles: 53371127 heartbeat IPC: 0.270559 cumulative IPC: 0.270559 (Simulation time: 0 hr 10 min 49 sec) 
Heartbeat CPU 0 instructions: 70000001 cycles: 89480252 heartbeat IPC: 0.276938 cumulative IPC: 0.273712 (Simulation time: 0 hr 13 min 16 sec) 
Heartbeat CPU 0 instructions: 80000000 cycles: 125286257 heartbeat IPC: 0.279283 cumulative IPC: 0.275544 (Simulation time: 0 hr 15 min 40 sec) 
Heartbeat CPU 0 instructions: 90000001 cycles: 160033247 heartbeat IPC: 0.287795 cumulative IPC: 0.278508 (Simulation time: 0 hr 18 min 13 sec) 
Heartbeat CPU 0 instructions: 100000000 cycles: 194207881 heartbeat IPC: 0.292615 cumulative IPC: 0.281219 (Simulation time: 0 hr 20 min 46 sec) 
Finished CPU 0 instructions: 50000003 cycles: 177797281 cumulative IPC: 0.281219 (Simulation time: 0 hr 20 min 46 sec) 

ChampSim completed all CPUs

Region of Interest Statistics

CPU 0 cumulative IPC: 0.281219 instructions: 50000003 cycles: 177797281
ITLB TOTAL     ACCESS:    6109771  HIT:    6109771  MISS:          0  HIT %:        100  MISS %:          0   MPKI: 0
ITLB LOAD TRANSLATION ACCESS:    6109771  HIT:    6109771  MISS:          0  HIT %:        100  MISS %:          0   MPKI: 0
ITLB PREFETCH  REQUESTED:          0  ISSUED:          0  USEFUL:          0  USELESS:          0
ITLB USEFUL LOAD PREFETCHES:          0 PREFETCH ISSUED TO LOWER LEVEL:          0  ACCURACY: -nan
ITLB TIMELY PREFETCHES:          0 LATE PREFETCHES: 0 DROPPED PREFETCHES: 0
ITLB PREFETCHES SAME FILL-ORIGIN LEVEL: 0 DIFFERENT FILL-ORIGIN LEVEL: 0
ITLB AVERAGE MISS LATENCY: -nan cycles
ITLB RQ	ACCESS:    6365181	FORWARD:          0	MERGED:     255411	TO_CACHE:    6109770

DTLB TOTAL     ACCESS:   10827985  HIT:    9879451  MISS:     948534  HIT %:      91.24  MISS %:    8.76002   MPKI: 18.9707
DTLB LOAD TRANSLATION ACCESS:   10827985  HIT:    9879451  MISS:     948534  HIT %:      91.24  MISS %:    8.76002   MPKI: 18.9707
DTLB PREFETCH  REQUESTED:          0  ISSUED:          0  USEFUL:          0  USELESS:          0
DTLB USEFUL LOAD PREFETCHES:          0 PREFETCH ISSUED TO LOWER LEVEL:          0  ACCURACY: -nan
DTLB TIMELY PREFETCHES:          0 LATE PREFETCHES: 0 DROPPED PREFETCHES: 0
DTLB PREFETCHES SAME FILL-ORIGIN LEVEL: 0 DIFFERENT FILL-ORIGIN LEVEL: 0
DTLB AVERAGE MISS LATENCY: 11.9505 cycles
DTLB RQ	ACCESS:   11599358	FORWARD:          0	MERGED:     745627	TO_CACHE:   10853731

STLB TOTAL     ACCESS:     948534  HIT:     935218  MISS:      13316  HIT %:    98.5961  MISS %:    1.40385   MPKI: 0.26632
STLB LOAD TRANSLATION ACCESS:     948534  HIT:     935218  MISS:      13316  HIT %:    98.5961  MISS %:    1.40385   MPKI: 0.26632
STLB PREFETCH  REQUESTED:          0  ISSUED:          0  USEFUL:          0  USELESS:          0
STLB USEFUL LOAD PREFETCHES:          0 PREFETCH ISSUED TO LOWER LEVEL:          0  ACCURACY: -nan
STLB TIMELY PREFETCHES:          0 LATE PREFETCHES: 0 DROPPED PREFETCHES: 0
STLB PREFETCHES SAME FILL-ORIGIN LEVEL: 0 DIFFERENT FILL-ORIGIN LEVEL: 0
STLB AVERAGE MISS LATENCY: 191.946 cycles
STLB RQ	ACCESS:     948534	FORWARD:          0	MERGED:          0	TO_CACHE:     948534

STLB Hit, L1D data hit: 0
STLB Hit, L2C data hit: 0
STLB Hit, LLC data hit: 0
STLB Hit, LLC data miss: 0
STLB STLB hints to L2: 0
L1D TOTAL     ACCESS:   10556358  HIT:    7941172  MISS:    2615186  HIT %:    75.2264  MISS %:    24.7736   MPKI: 52.3037
L1D LOAD      ACCESS:    9760535  HIT:    7310974  MISS:    2449561  HIT %:    74.9034  MISS %:    25.0966   MPKI: 48.9912
L1D RFO       ACCESS:     795823  HIT:     630198  MISS:     165625  HIT %:    79.1882  MISS %:    20.8118   MPKI: 3.3125
L1D PREFETCH  REQUESTED:          0  ISSUED:          0  USEFUL:          0  USELESS:          0
L1D USEFUL LOAD PREFETCHES:          0 PREFETCH ISSUED TO LOWER LEVEL:          0  ACCURACY: -nan
L1D TIMELY PREFETCHES:          0 LATE PREFETCHES: 0 DROPPED PREFETCHES: 0
L1D PREFETCHES SAME FILL-ORIGIN LEVEL: 0 DIFFERENT FILL-ORIGIN LEVEL: 0
L1D AVERAGE MISS LATENCY: 100.395 cycles
L1D RQ	ACCESS:   18732321	FORWARD:          0	MERGED:    7994907	TO_CACHE:   10736668
L1D WQ	ACCESS:     863041	FORWARD:        746	MERGED:        351	TO_CACHE:     862690

L1D UNIQUE REGIONS ACCESSED: 0
L1D REGIONS CONFLICTS: 0
L1D Cross Page Prefetch Requests: 0
L1D Same Page Prefetch Requests: 0
L1D ROI Sum of L1D PQ occupancy: 0
L1D PREFETCHES PUSHED FROM L2C: 0
L1I TOTAL     ACCESS:    6365182  HIT:    6365182  MISS:          0  HIT %:        100  MISS %:          0   MPKI: 0
L1I LOAD      ACCESS:    6365182  HIT:    6365182  MISS:          0  HIT %:        100  MISS %:          0   MPKI: 0
L1I PREFETCH  REQUESTED:          0  ISSUED:          0  USEFUL:          0  USELESS:          0
L1I USEFUL LOAD PREFETCHES:          0 PREFETCH ISSUED TO LOWER LEVEL:          0  ACCURACY: -nan
L1I TIMELY PREFETCHES:          0 LATE PREFETCHES: 0 DROPPED PREFETCHES: 0
L1I PREFETCHES SAME FILL-ORIGIN LEVEL: 0 DIFFERENT FILL-ORIGIN LEVEL: 0
L1I AVERAGE MISS LATENCY: -nan cycles
L1I RQ	ACCESS:    9928669	FORWARD:          0	MERGED:    3563488	TO_CACHE:    6365181

BTB TOTAL     ACCESS:    7129635  HIT:    7129514  MISS:        121  HIT %:    99.9983  MISS %: 0.00169714   MPKI: 0.00242
BTB BRANCH_DIRECT_JUMP	ACCESS:    2201631  HIT:    2201598  MISS:         33
BTB BRANCH_INDIRECT	ACCESS:          0  HIT:          0  MISS:          0
BTB BRANCH_CONDITIONAL	ACCESS:    4926646  HIT:    4926572  MISS:         74
BTB BRANCH_DIRECT_CALL	ACCESS:        679  HIT:        674  MISS:          5
BTB BRANCH_INDIRECT_CALL	ACCESS:          0  HIT:          0  MISS:          0
BTB BRANCH_RETURN	ACCESS:        679  HIT:        670  MISS:          9
BTB BRANCH_OTHER ACCESS:          0  HIT:          0  MISS:          0

L2C TOTAL     ACCESS:    5557220  HIT:    1892388  MISS:    3664832  HIT %:    34.0528  MISS %:    65.9472   MPKI: 73.2966
L2C LOAD      ACCESS:    2449561  HIT:     544513  MISS:    1905048  HIT %:     22.229  MISS %:     77.771   MPKI: 38.101
L2C DATA LOAD MPKI: 38.101
L2C INSTRUCTION LOAD MPKI: 0
L2C RFO       ACCESS:     165625  HIT:      96041  MISS:      69584  HIT %:     57.987  MISS %:     42.013   MPKI: 1.39168
L2C PREFETCH  ACCESS:    2439756  HIT:     761776  MISS:    1677980  HIT %:    31.2235  MISS %:    68.7765   MPKI: 33.5596
AGUS PREFETCH L1 MISS: 0
L2C DATA PREFETCH MPKI: 33.5596
L2C INSTRUCTION PREFETCH MPKI: 0
L2C WRITEBACK ACCESS:     487010  HIT:     484456  MISS:       2554  HIT %:    99.4756  MISS %:   0.524425   MPKI: 0.05108
L2C LOAD TRANSLATION ACCESS:      15268  HIT:       5602  MISS:       9666  HIT %:    36.6911  MISS %:    63.3089   MPKI: 0.19332
L2C PREFETCH  REQUESTED:    2593563  ISSUED:    2588520  USEFUL:     263953  USELESS:    1412778
L2C USEFUL LOAD PREFETCHES:     263953 PREFETCH ISSUED TO LOWER LEVEL:    1692336  ACCURACY: 15.597
L2C TIMELY PREFETCHES:     263953 LATE PREFETCHES: 14356 DROPPED PREFETCHES: 0
L2C PREFETCHES SAME FILL-ORIGIN LEVEL: 1692336 DIFFERENT FILL-ORIGIN LEVEL: 0
L2C AVERAGE MISS LATENCY: 95.4793 cycles
L2C RQ	ACCESS:    2630455	FORWARD:          0	MERGED:          0	TO_CACHE:    2630455
L2C WQ	ACCESS:     487010	FORWARD:          0	MERGED:          0	TO_CACHE:     487010
L2C PQ	ACCESS:    2588520	FORWARD:          0	MERGED:      81358	TO_CACHE:    2507162

L2C Instructions Evicting Data 0
L2C Translations Evicting Data 9614
L2C Data Evicting Data 3643004
L2C Instructions Evicting Instructions 0
L2C Translations Evicting Instructions 0
L2C Data Evicting Instructions 0
L2C Instructions Evicting Translations 0
L2C Translations Evicting Translations 52
L2C Data Evicting Translations 9608
L2C Dense regions hint from L2: 0
PSCL5 TOTAL     ACCESS:      13316  HIT:      13316  MISS:          0  HIT %:        100  MISS %:          0   MPKI: 0
PSCL5 LOAD TRANSLATION ACCESS:      13316  HIT:      13316  MISS:          0  HIT %:        100  MISS %:          0   MPKI: 0
PSCL5 PREFETCH  REQUESTED:          0  ISSUED:          0  USEFUL:          0  USELESS:          0
PSCL5 USEFUL LOAD PREFETCHES:          0 PREFETCH ISSUED TO LOWER LEVEL:          0  ACCURACY: -nan
PSCL5 TIMELY PREFETCHES:          0 LATE PREFETCHES: 0 DROPPED PREFETCHES: 0
PSCL5 PREFETCHES SAME FILL-ORIGIN LEVEL: 0 DIFFERENT FILL-ORIGIN LEVEL: 0

PSCL4 TOTAL     ACCESS:      13316  HIT:      13316  MISS:          0  HIT %:        100  MISS %:          0   MPKI: 0
PSCL4 LOAD TRANSLATION ACCESS:      13316  HIT:      13316  MISS:          0  HIT %:        100  MISS %:          0   MPKI: 0
PSCL4 PREFETCH  REQUESTED:          0  ISSUED:          0  USEFUL:          0  USELESS:          0
PSCL4 USEFUL LOAD PREFETCHES:          0 PREFETCH ISSUED TO LOWER LEVEL:          0  ACCURACY: -nan
PSCL4 TIMELY PREFETCHES:          0 LATE PREFETCHES: 0 DROPPED PREFETCHES: 0
PSCL4 PREFETCHES SAME FILL-ORIGIN LEVEL: 0 DIFFERENT FILL-ORIGIN LEVEL: 0

PSCL3 TOTAL     ACCESS:      13316  HIT:      13316  MISS:          0  HIT %:        100  MISS %:          0   MPKI: 0
PSCL3 LOAD TRANSLATION ACCESS:      13316  HIT:      13316  MISS:          0  HIT %:        100  MISS %:          0   MPKI: 0
PSCL3 PREFETCH  REQUESTED:          0  ISSUED:          0  USEFUL:          0  USELESS:          0
PSCL3 USEFUL LOAD PREFETCHES:          0 PREFETCH ISSUED TO LOWER LEVEL:          0  ACCURACY: -nan
PSCL3 TIMELY PREFETCHES:          0 LATE PREFETCHES: 0 DROPPED PREFETCHES: 0
PSCL3 PREFETCHES SAME FILL-ORIGIN LEVEL: 0 DIFFERENT FILL-ORIGIN LEVEL: 0

PSCL2 TOTAL     ACCESS:      13316  HIT:      11363  MISS:       1953  HIT %:    85.3334  MISS %:    14.6666   MPKI: 0.03906
PSCL2 LOAD TRANSLATION ACCESS:      13316  HIT:      11363  MISS:       1953  HIT %:    85.3334  MISS %:    14.6666   MPKI: 0.03906
PSCL2 PREFETCH  REQUESTED:          0  ISSUED:          0  USEFUL:          0  USELESS:          0
PSCL2 USEFUL LOAD PREFETCHES:          0 PREFETCH ISSUED TO LOWER LEVEL:          0  ACCURACY: -nan
PSCL2 TIMELY PREFETCHES:          0 LATE PREFETCHES: 0 DROPPED PREFETCHES: 0
PSCL2 PREFETCHES SAME FILL-ORIGIN LEVEL: 0 DIFFERENT FILL-ORIGIN LEVEL: 0

LLC TOTAL     ACCESS:    3991932  HIT:    2446939  MISS:    1544993  HIT %:    61.2971  MISS %:    38.7029   MPKI: 30.8999
LLC LOAD      ACCESS:    1890692  HIT:     866368  MISS:    1024324  HIT %:    45.8228  MISS %:    54.1772   MPKI: 20.4865
LLC RFO       ACCESS:      69583  HIT:      31366  MISS:      38217  HIT %:    45.0771  MISS %:    54.9229   MPKI: 0.76434
LLC PREFETCH  ACCESS:    1692336  HIT:    1220385  MISS:     471951  HIT %:    72.1125  MISS %:    27.8875   MPKI: 9.43902
AGUS PREFETCH L1 MISS: 0
LLC WRITEBACK ACCESS:     329655  HIT:     326700  MISS:       2955  HIT %:    99.1036  MISS %:   0.896392   MPKI: 0.0591
LLC LOAD TRANSLATION ACCESS:       9666  HIT:       2120  MISS:       7546  HIT %:    21.9325  MISS %:    78.0675   MPKI: 0.15092
LLC PREFETCH  REQUESTED:          0  ISSUED:          0  USEFUL:     119347  USELESS:     354809
LLC USEFUL LOAD PREFETCHES:     119347 PREFETCH ISSUED TO LOWER LEVEL:     471951  ACCURACY: 25.288
LLC TIMELY PREFETCHES:     119347 LATE PREFETCHES: 0 DROPPED PREFETCHES: 0
LLC PREFETCHES SAME FILL-ORIGIN LEVEL: 0 DIFFERENT FILL-ORIGIN LEVEL: 0
LLC AVERAGE MISS LATENCY: 155.238 cycles
LLC RQ	ACCESS:    1969942	FORWARD:          0	MERGED:          0	TO_CACHE:    1969941
LLC WQ	ACCESS:     329655	FORWARD:          1	MERGED:          0	TO_CACHE:     329655
LLC PQ	ACCESS:    1692336	FORWARD:          0	MERGED:          0	TO_CACHE:    1692336

LLC Dense regions hint to LLC: 0

RAW hits: 10574
Loads Generated: 18742896
Loads sent to L1D: 18732321
Stores Generated: 863037
Stores sent to L1D: 863041
Major fault: 0 Minor fault: 14991
Allocated PAGES: 14991
Prefetcher final stats
Training Unit Size: 209
Addr table size: 609459 609473


Triggers: 4542522
Structural address exists: 3615583 79.5942
No Prediction: 926939 20.4058
Prefetches issued: 5486586 120.783
Useful Prefetches: 263953
Useless Prefetches: 1412778
Stream end: 3448329
No translation: 3503615573
%Stream divergence: 749906 16.5086
Stream divergence -- new stream: 0

DRAM Statistics
 CHANNEL 0
 RQ ROW_BUFFER_HIT:     510646  ROW_BUFFER_MISS:    1031374
 DBUS_CONGESTED:       1046
 WQ ROW_BUFFER_HIT:      78570  ROW_BUFFER_MISS:     198947  FULL:          0

 AVG_CONGESTED_CYCLE: 4
 All warmup complete: 2
Channel 0 Bank busy for read cycles: 0
Channel 0 Bank busy for write cycles: 0
Channel 0
Rank 0
0banks busy for read cycles: 37732875
0banks busy for write cycles: 119746
1banks busy for read cycles: 59350780
1banks busy for write cycles: 20453196
2banks busy for read cycles: 23701147
2banks busy for write cycles: 9550336
3banks busy for read cycles: 11194809
3banks busy for write cycles: 4216784
4banks busy for read cycles: 5015445
4banks busy for write cycles: 1740655
5banks busy for read cycles: 2023879
5banks busy for write cycles: 678162
6banks busy for read cycles: 752754
6banks busy for write cycles: 272446
7banks busy for read cycles: 284520
7banks busy for write cycles: 119218
8banks busy for read cycles: 412154
8banks busy for write cycles: 178376

CPU 0 Branch Prediction Accuracy: 96.1377% MPKI: 5.72194 Average ROB Occupancy at Mispredict: 107.297
Branch types
NOT_BRANCH: 42592393 85.1848%
BRANCH_DIRECT_JUMP: 2201631 4.40326%
BRANCH_INDIRECT: 0 0%
BRANCH_CONDITIONAL: 5204342 10.4087%
BRANCH_DIRECT_CALL: 679 0.001358%
BRANCH_INDIRECT_CALL: 0 0%
BRANCH_RETURN: 679 0.001358%
BRANCH_OTHER: 0 0%

DRAM PAGES: 1048576
Allocated PAGES: 14991
