
*** ChampSim Multicore Out-of-Order Simulator ***

Warmup Instructions: 50000000
Simulation Instructions: 50000000
Number of CPUs: 1
LLC sets: 2048
LLC ways: 16
Off-chip DRAM Size: 4096 MB Channels: 1 Width: 64-bit Data Rate: 6400 MT/s
CPU 0 runs traces/SPEC-CPU2017/450.soplex-247B.champsimtrace.xz
.xz
CPU 0 Bimodal branch predictor
BTB has LRU replacement policy
ITLB has LRU replacement policy
DTLB has LRU replacement policy
STLB has LRU replacement policy
L1I has LRU replacement policy
Ideal ISB Prefetching
L1D has LRU replacement policy
L2C has LRU replacement policy
LLC has LRU replacement policy
Heartbeat CPU 0 instructions: 10000002 cycles: 3572598 heartbeat IPC: 2.79908 cumulative IPC: 2.79908 (Simulation time: 0 hr 1 min 15 sec) 
Heartbeat CPU 0 instructions: 20000000 cycles: 6844011 heartbeat IPC: 3.05678 cumulative IPC: 2.92226 (Simulation time: 0 hr 2 min 23 sec) 
Heartbeat CPU 0 instructions: 30000001 cycles: 10078970 heartbeat IPC: 3.09123 cumulative IPC: 2.97649 (Simulation time: 0 hr 3 min 47 sec) 
Heartbeat CPU 0 instructions: 40000000 cycles: 13316732 heartbeat IPC: 3.08855 cumulative IPC: 3.00374 (Simulation time: 0 hr 5 min 8 sec) 
Heartbeat CPU 0 instructions: 50000000 cycles: 16547336 heartbeat IPC: 3.0954 cumulative IPC: 3.02163 (Simulation time: 0 hr 6 min 29 sec) 

Warmup complete CPU 0 instructions: 50000004 cycles: 16547337 (Simulation time: 0 hr 6 min 29 sec) 

Heartbeat CPU 0 instructions: 60000000 cycles: 42501819 heartbeat IPC: 0.38529 cumulative IPC: 0.38529 (Simulation time: 0 hr 8 min 18 sec) 
Heartbeat CPU 0 instructions: 70000002 cycles: 70009316 heartbeat IPC: 0.363537 cumulative IPC: 0.374098 (Simulation time: 0 hr 10 min 11 sec) 
Heartbeat CPU 0 instructions: 80000000 cycles: 96893866 heartbeat IPC: 0.371961 cumulative IPC: 0.373383 (Simulation time: 0 hr 12 min 6 sec) 
Heartbeat CPU 0 instructions: 90000001 cycles: 124635747 heartbeat IPC: 0.360466 cumulative IPC: 0.370067 (Simulation time: 0 hr 14 min 11 sec) 
Heartbeat CPU 0 instructions: 100000000 cycles: 150744891 heartbeat IPC: 0.383008 cumulative IPC: 0.372585 (Simulation time: 0 hr 16 min 5 sec) 
Finished CPU 0 instructions: 50000000 cycles: 134197562 cumulative IPC: 0.372585 (Simulation time: 0 hr 16 min 5 sec) 

ChampSim completed all CPUs

Region of Interest Statistics

CPU 0 cumulative IPC: 0.372585 instructions: 50000000 cycles: 134197562
ITLB TOTAL     ACCESS:    8619206  HIT:    8619206  MISS:          0  HIT %:        100  MISS %:          0   MPKI: 0
ITLB LOAD TRANSLATION ACCESS:    8619206  HIT:    8619206  MISS:          0  HIT %:        100  MISS %:          0   MPKI: 0
ITLB PREFETCH  REQUESTED:          0  ISSUED:          0  USEFUL:          0  USELESS:          0
ITLB USEFUL LOAD PREFETCHES:          0 PREFETCH ISSUED TO LOWER LEVEL:          0  ACCURACY: -nan
ITLB TIMELY PREFETCHES:          0 LATE PREFETCHES: 0 DROPPED PREFETCHES: 0
ITLB PREFETCHES SAME FILL-ORIGIN LEVEL: 0 DIFFERENT FILL-ORIGIN LEVEL: 0
ITLB AVERAGE MISS LATENCY: -nan cycles
ITLB RQ	ACCESS:    9630062	FORWARD:          0	MERGED:    1010856	TO_CACHE:    8619206

DTLB TOTAL     ACCESS:    9573521  HIT:    9299769  MISS:     273752  HIT %:    97.1405  MISS %:    2.85947   MPKI: 5.47504
DTLB LOAD TRANSLATION ACCESS:    9573521  HIT:    9299769  MISS:     273752  HIT %:    97.1405  MISS %:    2.85947   MPKI: 5.47504
DTLB PREFETCH  REQUESTED:          0  ISSUED:          0  USEFUL:          0  USELESS:          0
DTLB USEFUL LOAD PREFETCHES:          0 PREFETCH ISSUED TO LOWER LEVEL:          0  ACCURACY: -nan
DTLB TIMELY PREFETCHES:          0 LATE PREFETCHES: 0 DROPPED PREFETCHES: 0
DTLB PREFETCHES SAME FILL-ORIGIN LEVEL: 0 DIFFERENT FILL-ORIGIN LEVEL: 0
DTLB AVERAGE MISS LATENCY: 13.3342 cycles
DTLB RQ	ACCESS:   10846676	FORWARD:          0	MERGED:    1228822	TO_CACHE:    9617854

STLB TOTAL     ACCESS:    1442540  HIT:    1399687  MISS:      42853  HIT %:    97.0293  MISS %:    2.97066   MPKI: 0.85706
STLB LOAD TRANSLATION ACCESS:     273752  HIT:     265890  MISS:       7862  HIT %:    97.1281  MISS %:    2.87194   MPKI: 0.15724
STLB TRANSLATION FROM L1D PREFETCHER ACCESS:    1168788  HIT:    1133797  MISS:      34991  HIT %:    97.0062  MISS %:    2.99379   MPKI: 0.69982
STLB PREFETCH  REQUESTED:          0  ISSUED:          0  USEFUL:      34400  USELESS:        583
STLB USEFUL LOAD PREFETCHES:      34400 PREFETCH ISSUED TO LOWER LEVEL:          0  ACCURACY: inf
STLB TIMELY PREFETCHES:      34400 LATE PREFETCHES: 236 DROPPED PREFETCHES: 0
STLB PREFETCHES SAME FILL-ORIGIN LEVEL: 0 DIFFERENT FILL-ORIGIN LEVEL: 0
STLB AVERAGE MISS LATENCY: 145.739 cycles
STLB RQ	ACCESS:    2514225	FORWARD:          0	MERGED:    1070684	TO_CACHE:    1443541

STLB Hit, L1D data hit: 0
STLB Hit, L2C data hit: 0
STLB Hit, LLC data hit: 0
STLB Hit, LLC data miss: 0
STLB STLB hints to L2: 0
L1D TOTAL     ACCESS:   11501764  HIT:    8198351  MISS:    3303413  HIT %:    71.2791  MISS %:    28.7209   MPKI: 66.0683
L1D LOAD      ACCESS:    7402023  HIT:    5924425  MISS:    1477598  HIT %:    80.0379  MISS %:    19.9621   MPKI: 29.552
L1D RFO       ACCESS:    2181148  HIT:    1885024  MISS:     296124  HIT %:    86.4235  MISS %:    13.5765   MPKI: 5.92248
L1D PREFETCH  ACCESS:    1918593  HIT:     388902  MISS:    1529691  HIT %:    20.2702  MISS %:    79.7298   MPKI: 30.5938
AGUS PREFETCH L1 MISS: 0
L1D PREFETCH  REQUESTED:    5015488  ISSUED:    4556813  USEFUL:     811725  USELESS:     718048
L1D USEFUL LOAD PREFETCHES:     811725 PREFETCH ISSUED TO LOWER LEVEL:    1585974  ACCURACY: 51.1815
L1D TIMELY PREFETCHES:     811725 LATE PREFETCHES: 56278 DROPPED PREFETCHES: 0
L1D PREFETCHES SAME FILL-ORIGIN LEVEL: 1585974 DIFFERENT FILL-ORIGIN LEVEL: 0
L1D AVERAGE MISS LATENCY: 152.94 cycles
L1D RQ	ACCESS:   14858166	FORWARD:          0	MERGED:    7046404	TO_CACHE:    7807221
L1D WQ	ACCESS:    3057587	FORWARD:       4647	MERGED:      18132	TO_CACHE:    3039455
L1D PQ	ACCESS:    2316340	FORWARD:          0	MERGED:      75761	TO_CACHE:    2240473

L1D UNIQUE REGIONS ACCESSED: 0
L1D REGIONS CONFLICTS: 0
L1D Cross Page Prefetch Requests: 2520004
L1D Same Page Prefetch Requests: 2344659
L1D ROI Sum of L1D PQ occupancy: 57209095
L1D PREFETCHES PUSHED FROM L2C: 0
L1I TOTAL     ACCESS:    9630028  HIT:    9629918  MISS:        110  HIT %:    99.9989  MISS %: 0.00114226   MPKI: 0.0022
L1I LOAD      ACCESS:    9630028  HIT:    9629918  MISS:        110  HIT %:    99.9989  MISS %: 0.00114226   MPKI: 0.0022
L1I PREFETCH  REQUESTED:          0  ISSUED:          0  USEFUL:          0  USELESS:          0
L1I USEFUL LOAD PREFETCHES:          0 PREFETCH ISSUED TO LOWER LEVEL:          0  ACCURACY: -nan
L1I TIMELY PREFETCHES:          0 LATE PREFETCHES: 0 DROPPED PREFETCHES: 0
L1I PREFETCHES SAME FILL-ORIGIN LEVEL: 0 DIFFERENT FILL-ORIGIN LEVEL: 0
L1I AVERAGE MISS LATENCY: 260.255 cycles
L1I RQ	ACCESS:   13921029	FORWARD:          0	MERGED:    4290967	TO_CACHE:    9630062

BTB TOTAL     ACCESS:    6809340  HIT:    6808752  MISS:        588  HIT %:    99.9914  MISS %:  0.0086352   MPKI: 0.01176
BTB BRANCH_DIRECT_JUMP	ACCESS:      51581  HIT:      51508  MISS:         73
BTB BRANCH_INDIRECT	ACCESS:         18  HIT:         11  MISS:          7
BTB BRANCH_CONDITIONAL	ACCESS:    6754135  HIT:    6753931  MISS:        204
BTB BRANCH_DIRECT_CALL	ACCESS:       1703  HIT:       1632  MISS:         71
BTB BRANCH_INDIRECT_CALL	ACCESS:        102  HIT:         81  MISS:         21
BTB BRANCH_RETURN	ACCESS:       1801  HIT:       1589  MISS:        212
BTB BRANCH_OTHER ACCESS:          0  HIT:          0  MISS:          0

L2C TOTAL     ACCESS:    4412519  HIT:    2145158  MISS:    2267361  HIT %:    48.6153  MISS %:    51.3847   MPKI: 45.3472
L2C LOAD      ACCESS:    1421311  HIT:     504103  MISS:     917208  HIT %:    35.4675  MISS %:    64.5325   MPKI: 18.3442
L2C DATA LOAD MPKI: 18.342
L2C INSTRUCTION LOAD MPKI: 0.0022
L2C RFO       ACCESS:     296114  HIT:      27753  MISS:     268361  HIT %:     9.3724  MISS %:    90.6276   MPKI: 5.36722
L2C PREFETCH  ACCESS:    1585900  HIT:     515523  MISS:    1070377  HIT %:    32.5067  MISS %:    67.4933   MPKI: 21.4075
AGUS PREFETCH L1 MISS: 0
L2C DATA PREFETCH MPKI: 21.4075
L2C INSTRUCTION PREFETCH MPKI: 0
L2C WRITEBACK ACCESS:    1066117  HIT:    1066077  MISS:         40  HIT %:    99.9962  MISS %: 0.00375193   MPKI: 0.0008
L2C LOAD TRANSLATION ACCESS:       7792  HIT:       5762  MISS:       2030  HIT %:    73.9476  MISS %:    26.0524   MPKI: 0.0406
L2C TRANSLATION FROM L1D PREFETCHER ACCESS:      35285  HIT:      25940  MISS:       9345  HIT %:    73.5157  MISS %:    26.4843   MPKI: 0.1869
L2C PREFETCH  REQUESTED:          0  ISSUED:          0  USEFUL:     106599  USELESS:     976094
L2C USEFUL LOAD PREFETCHES:     106599 PREFETCH ISSUED TO LOWER LEVEL:    1070377  ACCURACY: 9.95901
L2C TIMELY PREFETCHES:     106599 LATE PREFETCHES: 0 DROPPED PREFETCHES: 0
L2C PREFETCHES SAME FILL-ORIGIN LEVEL: 0 DIFFERENT FILL-ORIGIN LEVEL: 0
L2C AVERAGE MISS LATENCY: 201.538 cycles
L2C RQ	ACCESS:    1760630	FORWARD:          0	MERGED:          0	TO_CACHE:    1760506
L2C WQ	ACCESS:    1066118	FORWARD:        198	MERGED:          0	TO_CACHE:    1066118
L2C PQ	ACCESS:    1585974	FORWARD:          0	MERGED:          0	TO_CACHE:    1585900

L2C Instructions Evicting Data 110
L2C Translations Evicting Data 11283
L2C Data Evicting Data 2244458
L2C Instructions Evicting Instructions 0
L2C Translations Evicting Instructions 1
L2C Data Evicting Instructions 106
L2C Instructions Evicting Translations 0
L2C Translations Evicting Translations 91
L2C Data Evicting Translations 11272
L2C Dense regions hint from L2: 0
PSCL5 TOTAL     ACCESS:      42853  HIT:      42853  MISS:          0  HIT %:        100  MISS %:          0   MPKI: 0
PSCL5 LOAD TRANSLATION ACCESS:       7626  HIT:       7626  MISS:          0  HIT %:        100  MISS %:          0   MPKI: 0
PSCL5 TRANSLATION FROM L1D PREFETCHER ACCESS:      35227  HIT:      35227  MISS:          0  HIT %:        100  MISS %:          0   MPKI: 0
PSCL5 PREFETCH  REQUESTED:          0  ISSUED:          0  USEFUL:          0  USELESS:          0
PSCL5 USEFUL LOAD PREFETCHES:          0 PREFETCH ISSUED TO LOWER LEVEL:          0  ACCURACY: -nan
PSCL5 TIMELY PREFETCHES:          0 LATE PREFETCHES: 0 DROPPED PREFETCHES: 0
PSCL5 PREFETCHES SAME FILL-ORIGIN LEVEL: 0 DIFFERENT FILL-ORIGIN LEVEL: 0

PSCL4 TOTAL     ACCESS:      42853  HIT:      42853  MISS:          0  HIT %:        100  MISS %:          0   MPKI: 0
PSCL4 LOAD TRANSLATION ACCESS:       7626  HIT:       7626  MISS:          0  HIT %:        100  MISS %:          0   MPKI: 0
PSCL4 TRANSLATION FROM L1D PREFETCHER ACCESS:      35227  HIT:      35227  MISS:          0  HIT %:        100  MISS %:          0   MPKI: 0
PSCL4 PREFETCH  REQUESTED:          0  ISSUED:          0  USEFUL:          0  USELESS:          0
PSCL4 USEFUL LOAD PREFETCHES:          0 PREFETCH ISSUED TO LOWER LEVEL:          0  ACCURACY: -nan
PSCL4 TIMELY PREFETCHES:          0 LATE PREFETCHES: 0 DROPPED PREFETCHES: 0
PSCL4 PREFETCHES SAME FILL-ORIGIN LEVEL: 0 DIFFERENT FILL-ORIGIN LEVEL: 0

PSCL3 TOTAL     ACCESS:      42853  HIT:      42853  MISS:          0  HIT %:        100  MISS %:          0   MPKI: 0
PSCL3 LOAD TRANSLATION ACCESS:       7626  HIT:       7626  MISS:          0  HIT %:        100  MISS %:          0   MPKI: 0
PSCL3 TRANSLATION FROM L1D PREFETCHER ACCESS:      35227  HIT:      35227  MISS:          0  HIT %:        100  MISS %:          0   MPKI: 0
PSCL3 PREFETCH  REQUESTED:          0  ISSUED:          0  USEFUL:          0  USELESS:          0
PSCL3 USEFUL LOAD PREFETCHES:          0 PREFETCH ISSUED TO LOWER LEVEL:          0  ACCURACY: -nan
PSCL3 TIMELY PREFETCHES:          0 LATE PREFETCHES: 0 DROPPED PREFETCHES: 0
PSCL3 PREFETCHES SAME FILL-ORIGIN LEVEL: 0 DIFFERENT FILL-ORIGIN LEVEL: 0

PSCL2 TOTAL     ACCESS:      42853  HIT:      42625  MISS:        228  HIT %:    99.4679  MISS %:   0.532051   MPKI: 0.00456
PSCL2 LOAD TRANSLATION ACCESS:       7684  HIT:       7456  MISS:        228  HIT %:    97.0328  MISS %:     2.9672   MPKI: 0.00456
PSCL2 TRANSLATION FROM L1D PREFETCHER ACCESS:      35169  HIT:      35169  MISS:          0  HIT %:        100  MISS %:          0   MPKI: 0
PSCL2 PREFETCH  REQUESTED:          0  ISSUED:          0  USEFUL:          0  USELESS:          0
PSCL2 USEFUL LOAD PREFETCHES:          0 PREFETCH ISSUED TO LOWER LEVEL:          0  ACCURACY: -nan
PSCL2 TIMELY PREFETCHES:          0 LATE PREFETCHES: 0 DROPPED PREFETCHES: 0
PSCL2 PREFETCHES SAME FILL-ORIGIN LEVEL: 0 DIFFERENT FILL-ORIGIN LEVEL: 0

LLC TOTAL     ACCESS:    3046438  HIT:    1242494  MISS:    1803944  HIT %:    40.7851  MISS %:    59.2149   MPKI: 36.0789
LLC LOAD      ACCESS:     917195  HIT:     221711  MISS:     695484  HIT %:    24.1727  MISS %:    75.8273   MPKI: 13.9097
LLC RFO       ACCESS:     268361  HIT:      75234  MISS:     193127  HIT %:    28.0346  MISS %:    71.9654   MPKI: 3.86254
LLC PREFETCH  ACCESS:    1070369  HIT:     164909  MISS:     905460  HIT %:    15.4067  MISS %:    84.5933   MPKI: 18.1092
AGUS PREFETCH L1 MISS: 0
LLC WRITEBACK ACCESS:     779138  HIT:     778978  MISS:        160  HIT %:    99.9795  MISS %:  0.0205355   MPKI: 0.0032
LLC LOAD TRANSLATION ACCESS:       2030  HIT:        135  MISS:       1895  HIT %:    6.65025  MISS %:    93.3498   MPKI: 0.0379
LLC TRANSLATION FROM L1D PREFETCHER ACCESS:       9345  HIT:       1527  MISS:       7818  HIT %:    16.3403  MISS %:    83.6597   MPKI: 0.15636
LLC PREFETCH  REQUESTED:          0  ISSUED:          0  USEFUL:      59306  USELESS:     863292
LLC USEFUL LOAD PREFETCHES:      59306 PREFETCH ISSUED TO LOWER LEVEL:     905460  ACCURACY: 6.54982
LLC TIMELY PREFETCHES:      59306 LATE PREFETCHES: 0 DROPPED PREFETCHES: 0
LLC PREFETCHES SAME FILL-ORIGIN LEVEL: 0 DIFFERENT FILL-ORIGIN LEVEL: 0
LLC AVERAGE MISS LATENCY: 215.599 cycles
LLC RQ	ACCESS:    1196948	FORWARD:          0	MERGED:          0	TO_CACHE:    1196935
LLC WQ	ACCESS:     779139	FORWARD:         21	MERGED:          0	TO_CACHE:     779139
LLC PQ	ACCESS:    1070377	FORWARD:          0	MERGED:          0	TO_CACHE:    1070369

LLC Dense regions hint to LLC: 0

RAW hits: 150381
Loads Generated: 15008550
Loads sent to L1D: 14858166
Stores Generated: 3057587
Stores sent to L1D: 3057587
Major fault: 0 Minor fault: 7959
Allocated PAGES: 7959
Prefetcher final stats
Training Unit Size: 1011
Addr table size: 237756 237787


Triggers: 3070019
Structural address exists: 2575099 83.8789
No Prediction: 494920 16.1211
Prefetches issued: 4864663 158.457
Useful Prefetches: 811725
Useless Prefetches: 718048
Stream end: 2203651
No translation: 2237535576
%Stream divergence: 752148 24.4998
Stream divergence -- new stream: 0

DRAM Statistics
 CHANNEL 0
 RQ ROW_BUFFER_HIT:     550778  ROW_BUFFER_MISS:    1252606
 DBUS_CONGESTED:        280
 WQ ROW_BUFFER_HIT:     180538  ROW_BUFFER_MISS:     446008  FULL:          0

 AVG_CONGESTED_CYCLE: 4
 All warmup complete: 2
Channel 0 Bank busy for read cycles: 0
Channel 0 Bank busy for write cycles: 0
Channel 0
Rank 0
0banks busy for read cycles: 36008229
0banks busy for write cycles: 56641
1banks busy for read cycles: 24415906
1banks busy for write cycles: 7788828
2banks busy for read cycles: 12314342
2banks busy for write cycles: 3106863
3banks busy for read cycles: 8160532
3banks busy for write cycles: 1667009
4banks busy for read cycles: 6431747
4banks busy for write cycles: 1176664
5banks busy for read cycles: 5231783
5banks busy for write cycles: 1014839
6banks busy for read cycles: 5179445
6banks busy for write cycles: 1032966
7banks busy for read cycles: 4851536
7banks busy for write cycles: 2025738
8banks busy for read cycles: 3594619
8banks busy for write cycles: 10139876

CPU 0 Branch Prediction Accuracy: 94.9774% MPKI: 9.10314 Average ROB Occupancy at Mispredict: 48.6798
Branch types
NOT_BRANCH: 40937791 81.8756%
BRANCH_DIRECT_JUMP: 51581 0.103162%
BRANCH_INDIRECT: 18 3.6e-05%
BRANCH_CONDITIONAL: 9006954 18.0139%
BRANCH_DIRECT_CALL: 1703 0.003406%
BRANCH_INDIRECT_CALL: 102 0.000204%
BRANCH_RETURN: 1801 0.003602%
BRANCH_OTHER: 0 0%

DRAM PAGES: 1048576
Allocated PAGES: 7959
