
*** ChampSim Multicore Out-of-Order Simulator ***

Warmup Instructions: 50000000
Simulation Instructions: 50000000
Number of CPUs: 1
LLC sets: 2048
LLC ways: 16
Off-chip DRAM Size: 4096 MB Channels: 1 Width: 64-bit Data Rate: 6400 MT/s
CPU 0 runs traces/SPEC-CPU2017/450.soplex-247B.champsimtrace.xz
.xz
CPU 0 Bimodal branch predictor
BTB has LRU replacement policy
ITLB has LRU replacement policy
DTLB has LRU replacement policy
STLB has LRU replacement policy
L1I has LRU replacement policy
Ideal ISB Prefetching
L1D has LRU replacement policy
L2C has LRU replacement policy
LLC has LRU replacement policy
Heartbeat CPU 0 instructions: 10000002 cycles: 3574097 heartbeat IPC: 2.79791 cumulative IPC: 2.79791 (Simulation time: 0 hr 3 min 46 sec) 
Heartbeat CPU 0 instructions: 20000000 cycles: 6847453 heartbeat IPC: 3.05497 cumulative IPC: 2.92079 (Simulation time: 0 hr 8 min 21 sec) 
Heartbeat CPU 0 instructions: 30000001 cycles: 10081728 heartbeat IPC: 3.09188 cumulative IPC: 2.97568 (Simulation time: 0 hr 13 min 1 sec) 
Heartbeat CPU 0 instructions: 40000000 cycles: 13319733 heartbeat IPC: 3.08832 cumulative IPC: 3.00306 (Simulation time: 0 hr 17 min 48 sec) 
Heartbeat CPU 0 instructions: 50000000 cycles: 16549019 heartbeat IPC: 3.09666 cumulative IPC: 3.02133 (Simulation time: 0 hr 22 min 27 sec) 

Warmup complete CPU 0 instructions: 50000004 cycles: 16549020 (Simulation time: 0 hr 22 min 27 sec) 

Heartbeat CPU 0 instructions: 60000000 cycles: 42265575 heartbeat IPC: 0.388855 cumulative IPC: 0.388854 (Simulation time: 0 hr 27 min 23 sec) 
Heartbeat CPU 0 instructions: 70000002 cycles: 69353538 heartbeat IPC: 0.369168 cumulative IPC: 0.378755 (Simulation time: 0 hr 32 min 11 sec) 
Heartbeat CPU 0 instructions: 80000000 cycles: 95773484 heartbeat IPC: 0.378502 cumulative IPC: 0.378671 (Simulation time: 0 hr 36 min 54 sec) 
Heartbeat CPU 0 instructions: 90000002 cycles: 122933201 heartbeat IPC: 0.368192 cumulative IPC: 0.375996 (Simulation time: 0 hr 41 min 54 sec) 
Heartbeat CPU 0 instructions: 100000000 cycles: 148274716 heartbeat IPC: 0.394609 cumulative IPC: 0.379577 (Simulation time: 0 hr 46 min 30 sec) 
Finished CPU 0 instructions: 50000000 cycles: 131725704 cumulative IPC: 0.379577 (Simulation time: 0 hr 46 min 30 sec) 

ChampSim completed all CPUs

Region of Interest Statistics

CPU 0 cumulative IPC: 0.379577 instructions: 50000000 cycles: 131725704
ITLB TOTAL     ACCESS:    8594603  HIT:    8594603  MISS:          0  HIT %:        100  MISS %:          0   MPKI: 0
ITLB LOAD TRANSLATION ACCESS:    8594603  HIT:    8594603  MISS:          0  HIT %:        100  MISS %:          0   MPKI: 0
ITLB PREFETCH  REQUESTED:          0  ISSUED:          0  USEFUL:          0  USELESS:          0
ITLB USEFUL LOAD PREFETCHES:          0 PREFETCH ISSUED TO LOWER LEVEL:          0  ACCURACY: -nan
ITLB TIMELY PREFETCHES:          0 LATE PREFETCHES: 0 DROPPED PREFETCHES: 0
ITLB PREFETCHES SAME FILL-ORIGIN LEVEL: 0 DIFFERENT FILL-ORIGIN LEVEL: 0
ITLB AVERAGE MISS LATENCY: -nan cycles
ITLB RQ	ACCESS:    9608076	FORWARD:          0	MERGED:    1013474	TO_CACHE:    8594602

DTLB TOTAL     ACCESS:    9636124  HIT:    9362248  MISS:     273876  HIT %:    97.1578  MISS %:    2.84218   MPKI: 5.47752
DTLB LOAD TRANSLATION ACCESS:    9636124  HIT:    9362248  MISS:     273876  HIT %:    97.1578  MISS %:    2.84218   MPKI: 5.47752
DTLB PREFETCH  REQUESTED:          0  ISSUED:          0  USEFUL:          0  USELESS:          0
DTLB USEFUL LOAD PREFETCHES:          0 PREFETCH ISSUED TO LOWER LEVEL:          0  ACCURACY: -nan
DTLB TIMELY PREFETCHES:          0 LATE PREFETCHES: 0 DROPPED PREFETCHES: 0
DTLB PREFETCHES SAME FILL-ORIGIN LEVEL: 0 DIFFERENT FILL-ORIGIN LEVEL: 0
DTLB AVERAGE MISS LATENCY: 13.2694 cycles
DTLB RQ	ACCESS:   10899618	FORWARD:          0	MERGED:    1220280	TO_CACHE:    9679338

STLB TOTAL     ACCESS:    4335735  HIT:    4292676  MISS:      43059  HIT %:    99.0069  MISS %:   0.993119   MPKI: 0.86118
STLB LOAD TRANSLATION ACCESS:     273876  HIT:     266404  MISS:       7472  HIT %:    97.2718  MISS %:    2.72824   MPKI: 0.14944
STLB TRANSLATION FROM L1D PREFETCHER ACCESS:    4061859  HIT:    4026272  MISS:      35587  HIT %:    99.1239  MISS %:   0.876126   MPKI: 0.71174
STLB PREFETCH  REQUESTED:          0  ISSUED:          0  USEFUL:      35012  USELESS:        589
STLB USEFUL LOAD PREFETCHES:      35012 PREFETCH ISSUED TO LOWER LEVEL:          0  ACCURACY: inf
STLB TIMELY PREFETCHES:      35012 LATE PREFETCHES: 148 DROPPED PREFETCHES: 0
STLB PREFETCHES SAME FILL-ORIGIN LEVEL: 0 DIFFERENT FILL-ORIGIN LEVEL: 0
STLB AVERAGE MISS LATENCY: 127.568 cycles
STLB RQ	ACCESS:   11364094	FORWARD:          0	MERGED:    7027533	TO_CACHE:    4336561

STLB Hit, L1D data hit: 0
STLB Hit, L2C data hit: 0
STLB Hit, LLC data hit: 0
STLB Hit, LLC data miss: 0
STLB STLB hints to L2: 0
L1D TOTAL     ACCESS:   19907676  HIT:   16684344  MISS:    3223332  HIT %:    83.8086  MISS %:    16.1914   MPKI: 64.4666
L1D LOAD      ACCESS:    7491457  HIT:    6054484  MISS:    1436973  HIT %:    80.8185  MISS %:    19.1815   MPKI: 28.7395
L1D RFO       ACCESS:    2178685  HIT:    1882555  MISS:     296130  HIT %:    86.4079  MISS %:    13.5921   MPKI: 5.9226
L1D PREFETCH  ACCESS:   10237534  HIT:    8747305  MISS:    1490229  HIT %:    85.4435  MISS %:    14.5565   MPKI: 29.8046
AGUS PREFETCH L1 MISS: 0
L1D PREFETCH  REQUESTED:   28991456  ISSUED:   22908537  USEFUL:     854369  USELESS:     635975
L1D USEFUL LOAD PREFETCHES:     854369 PREFETCH ISSUED TO LOWER LEVEL:    1538788  ACCURACY: 55.5222
L1D TIMELY PREFETCHES:     854369 LATE PREFETCHES: 48559 DROPPED PREFETCHES: 0
L1D PREFETCHES SAME FILL-ORIGIN LEVEL: 1538788 DIFFERENT FILL-ORIGIN LEVEL: 0
L1D AVERAGE MISS LATENCY: 159.977 cycles
L1D RQ	ACCESS:   14858296	FORWARD:          0	MERGED:    6993537	TO_CACHE:    7860146
L1D WQ	ACCESS:    3057587	FORWARD:       5064	MERGED:      18115	TO_CACHE:    3039472
L1D PQ	ACCESS:   11818319	FORWARD:          0	MERGED:     727650	TO_CACHE:   11090218

L1D UNIQUE REGIONS ACCESSED: 0
L1D REGIONS CONFLICTS: 0
L1D Cross Page Prefetch Requests: 5760430
L1D Same Page Prefetch Requests: 17054503
L1D ROI Sum of L1D PQ occupancy: 192893388
L1D PREFETCHES PUSHED FROM L2C: 0
L1I TOTAL     ACCESS:    9608042  HIT:    9607932  MISS:        110  HIT %:    99.9989  MISS %: 0.00114487   MPKI: 0.0022
L1I LOAD      ACCESS:    9608042  HIT:    9607932  MISS:        110  HIT %:    99.9989  MISS %: 0.00114487   MPKI: 0.0022
L1I PREFETCH  REQUESTED:          0  ISSUED:          0  USEFUL:          0  USELESS:          0
L1I USEFUL LOAD PREFETCHES:          0 PREFETCH ISSUED TO LOWER LEVEL:          0  ACCURACY: -nan
L1I TIMELY PREFETCHES:          0 LATE PREFETCHES: 0 DROPPED PREFETCHES: 0
L1I PREFETCHES SAME FILL-ORIGIN LEVEL: 0 DIFFERENT FILL-ORIGIN LEVEL: 0
L1I AVERAGE MISS LATENCY: 237.145 cycles
L1I RQ	ACCESS:   13880337	FORWARD:          0	MERGED:    4272261	TO_CACHE:    9608076

BTB TOTAL     ACCESS:    6809334  HIT:    6808746  MISS:        588  HIT %:    99.9914  MISS %: 0.00863521   MPKI: 0.01176
BTB BRANCH_DIRECT_JUMP	ACCESS:      51581  HIT:      51508  MISS:         73
BTB BRANCH_INDIRECT	ACCESS:         18  HIT:         11  MISS:          7
BTB BRANCH_CONDITIONAL	ACCESS:    6754129  HIT:    6753925  MISS:        204
BTB BRANCH_DIRECT_CALL	ACCESS:       1703  HIT:       1632  MISS:         71
BTB BRANCH_INDIRECT_CALL	ACCESS:        102  HIT:         81  MISS:         21
BTB BRANCH_RETURN	ACCESS:       1801  HIT:       1589  MISS:        212
BTB BRANCH_OTHER ACCESS:          0  HIT:          0  MISS:          0

L2C TOTAL     ACCESS:    4335116  HIT:    2082340  MISS:    2252776  HIT %:    48.0342  MISS %:    51.9658   MPKI: 45.0555
L2C LOAD      ACCESS:    1388436  HIT:     499796  MISS:     888640  HIT %:     35.997  MISS %:     64.003   MPKI: 17.7728
L2C DATA LOAD MPKI: 17.7706
L2C INSTRUCTION LOAD MPKI: 0.0022
L2C RFO       ACCESS:     296125  HIT:      28037  MISS:     268088  HIT %:    9.46796  MISS %:     90.532   MPKI: 5.36176
L2C PREFETCH  ACCESS:    1538685  HIT:     454113  MISS:    1084572  HIT %:    29.5131  MISS %:    70.4869   MPKI: 21.6914
AGUS PREFETCH L1 MISS: 0
L2C DATA PREFETCH MPKI: 21.6914
L2C INSTRUCTION PREFETCH MPKI: 0
L2C WRITEBACK ACCESS:    1068583  HIT:    1068536  MISS:         47  HIT %:    99.9956  MISS %: 0.00439835   MPKI: 0.00094
L2C LOAD TRANSLATION ACCESS:       7491  HIT:       5563  MISS:       1928  HIT %:    74.2624  MISS %:    25.7376   MPKI: 0.03856
L2C TRANSLATION FROM L1D PREFETCHER ACCESS:      35796  HIT:      26295  MISS:       9501  HIT %:    73.4579  MISS %:    26.5421   MPKI: 0.19002
L2C PREFETCH  REQUESTED:          0  ISSUED:          0  USEFUL:      95428  USELESS:    1001294
L2C USEFUL LOAD PREFETCHES:      95428 PREFETCH ISSUED TO LOWER LEVEL:    1084572  ACCURACY: 8.79868
L2C TIMELY PREFETCHES:      95428 LATE PREFETCHES: 0 DROPPED PREFETCHES: 0
L2C PREFETCHES SAME FILL-ORIGIN LEVEL: 0 DIFFERENT FILL-ORIGIN LEVEL: 0
L2C AVERAGE MISS LATENCY: 208.339 cycles
L2C RQ	ACCESS:    1727945	FORWARD:          0	MERGED:          0	TO_CACHE:    1727852
L2C WQ	ACCESS:    1068584	FORWARD:        196	MERGED:          0	TO_CACHE:    1068584
L2C PQ	ACCESS:    1538788	FORWARD:          0	MERGED:          0	TO_CACHE:    1538685

L2C Instructions Evicting Data 109
L2C Translations Evicting Data 11335
L2C Data Evicting Data 2229752
L2C Instructions Evicting Instructions 0
L2C Translations Evicting Instructions 0
L2C Data Evicting Instructions 107
L2C Instructions Evicting Translations 1
L2C Translations Evicting Translations 94
L2C Data Evicting Translations 11331
L2C Dense regions hint from L2: 0
PSCL5 TOTAL     ACCESS:      43059  HIT:      43059  MISS:          0  HIT %:        100  MISS %:          0   MPKI: 0
PSCL5 LOAD TRANSLATION ACCESS:       7324  HIT:       7324  MISS:          0  HIT %:        100  MISS %:          0   MPKI: 0
PSCL5 TRANSLATION FROM L1D PREFETCHER ACCESS:      35735  HIT:      35735  MISS:          0  HIT %:        100  MISS %:          0   MPKI: 0
PSCL5 PREFETCH  REQUESTED:          0  ISSUED:          0  USEFUL:          0  USELESS:          0
PSCL5 USEFUL LOAD PREFETCHES:          0 PREFETCH ISSUED TO LOWER LEVEL:          0  ACCURACY: -nan
PSCL5 TIMELY PREFETCHES:          0 LATE PREFETCHES: 0 DROPPED PREFETCHES: 0
PSCL5 PREFETCHES SAME FILL-ORIGIN LEVEL: 0 DIFFERENT FILL-ORIGIN LEVEL: 0

PSCL4 TOTAL     ACCESS:      43059  HIT:      43059  MISS:          0  HIT %:        100  MISS %:          0   MPKI: 0
PSCL4 LOAD TRANSLATION ACCESS:       7324  HIT:       7324  MISS:          0  HIT %:        100  MISS %:          0   MPKI: 0
PSCL4 TRANSLATION FROM L1D PREFETCHER ACCESS:      35735  HIT:      35735  MISS:          0  HIT %:        100  MISS %:          0   MPKI: 0
PSCL4 PREFETCH  REQUESTED:          0  ISSUED:          0  USEFUL:          0  USELESS:          0
PSCL4 USEFUL LOAD PREFETCHES:          0 PREFETCH ISSUED TO LOWER LEVEL:          0  ACCURACY: -nan
PSCL4 TIMELY PREFETCHES:          0 LATE PREFETCHES: 0 DROPPED PREFETCHES: 0
PSCL4 PREFETCHES SAME FILL-ORIGIN LEVEL: 0 DIFFERENT FILL-ORIGIN LEVEL: 0

PSCL3 TOTAL     ACCESS:      43059  HIT:      43059  MISS:          0  HIT %:        100  MISS %:          0   MPKI: 0
PSCL3 LOAD TRANSLATION ACCESS:       7324  HIT:       7324  MISS:          0  HIT %:        100  MISS %:          0   MPKI: 0
PSCL3 TRANSLATION FROM L1D PREFETCHER ACCESS:      35735  HIT:      35735  MISS:          0  HIT %:        100  MISS %:          0   MPKI: 0
PSCL3 PREFETCH  REQUESTED:          0  ISSUED:          0  USEFUL:          0  USELESS:          0
PSCL3 USEFUL LOAD PREFETCHES:          0 PREFETCH ISSUED TO LOWER LEVEL:          0  ACCURACY: -nan
PSCL3 TIMELY PREFETCHES:          0 LATE PREFETCHES: 0 DROPPED PREFETCHES: 0
PSCL3 PREFETCHES SAME FILL-ORIGIN LEVEL: 0 DIFFERENT FILL-ORIGIN LEVEL: 0

PSCL2 TOTAL     ACCESS:      43059  HIT:      42827  MISS:        232  HIT %:    99.4612  MISS %:   0.538796   MPKI: 0.00464
PSCL2 LOAD TRANSLATION ACCESS:       7385  HIT:       7153  MISS:        232  HIT %:    96.8585  MISS %:     3.1415   MPKI: 0.00464
PSCL2 TRANSLATION FROM L1D PREFETCHER ACCESS:      35674  HIT:      35674  MISS:          0  HIT %:        100  MISS %:          0   MPKI: 0
PSCL2 PREFETCH  REQUESTED:          0  ISSUED:          0  USEFUL:          0  USELESS:          0
PSCL2 USEFUL LOAD PREFETCHES:          0 PREFETCH ISSUED TO LOWER LEVEL:          0  ACCURACY: -nan
PSCL2 TIMELY PREFETCHES:          0 LATE PREFETCHES: 0 DROPPED PREFETCHES: 0
PSCL2 PREFETCHES SAME FILL-ORIGIN LEVEL: 0 DIFFERENT FILL-ORIGIN LEVEL: 0

LLC TOTAL     ACCESS:    3030832  HIT:    1237393  MISS:    1793439  HIT %:    40.8268  MISS %:    59.1732   MPKI: 35.8688
LLC LOAD      ACCESS:     888633  HIT:     222179  MISS:     666454  HIT %:    25.0023  MISS %:    74.9977   MPKI: 13.3291
LLC RFO       ACCESS:     268087  HIT:      76575  MISS:     191512  HIT %:    28.5635  MISS %:    71.4365   MPKI: 3.83024
LLC PREFETCH  ACCESS:    1084567  HIT:     159049  MISS:     925518  HIT %:    14.6647  MISS %:    85.3353   MPKI: 18.5104
AGUS PREFETCH L1 MISS: 0
LLC WRITEBACK ACCESS:     778116  HIT:     777975  MISS:        141  HIT %:    99.9819  MISS %:  0.0181207   MPKI: 0.00282
LLC LOAD TRANSLATION ACCESS:       1928  HIT:        146  MISS:       1782  HIT %:    7.57261  MISS %:    92.4274   MPKI: 0.03564
LLC TRANSLATION FROM L1D PREFETCHER ACCESS:       9501  HIT:       1469  MISS:       8032  HIT %:    15.4615  MISS %:    84.5385   MPKI: 0.16064
LLC PREFETCH  REQUESTED:          0  ISSUED:          0  USEFUL:      60034  USELESS:     881679
LLC USEFUL LOAD PREFETCHES:      60034 PREFETCH ISSUED TO LOWER LEVEL:     925518  ACCURACY: 6.48653
LLC TIMELY PREFETCHES:      60034 LATE PREFETCHES: 0 DROPPED PREFETCHES: 0
LLC PREFETCHES SAME FILL-ORIGIN LEVEL: 0 DIFFERENT FILL-ORIGIN LEVEL: 0
LLC AVERAGE MISS LATENCY: 224.01 cycles
LLC RQ	ACCESS:    1168161	FORWARD:          0	MERGED:          0	TO_CACHE:    1168153
LLC WQ	ACCESS:     778117	FORWARD:         13	MERGED:          0	TO_CACHE:     778117
LLC PQ	ACCESS:    1084572	FORWARD:          0	MERGED:          0	TO_CACHE:    1084567

LLC Dense regions hint to LLC: 0

RAW hits: 150241
Loads Generated: 15008540
Loads sent to L1D: 14858296
Stores Generated: 3057587
Stores sent to L1D: 3057587
Major fault: 0 Minor fault: 7959
Allocated PAGES: 7959
Prefetcher final stats
Training Unit Size: 2405
Addr table size: 240685 241896


Triggers: 15978578
Structural address exists: 13684571 85.6432
No Prediction: 2294007 14.3568
Prefetches issued: 22814933 142.785
Useful Prefetches: 854369
Useless Prefetches: 635975
Stream end: 10492353
No translation: 1952052673
%Stream divergence: 1001254 6.26623
Stream divergence -- new stream: 0

DRAM Statistics
 CHANNEL 0
 RQ ROW_BUFFER_HIT:     470621  ROW_BUFFER_MISS:    1322241
 DBUS_CONGESTED:        441
 WQ ROW_BUFFER_HIT:     194158  ROW_BUFFER_MISS:     431561  FULL:          0

 AVG_CONGESTED_CYCLE: 4
 All warmup complete: 2
Channel 0 Bank busy for read cycles: 0
Channel 0 Bank busy for write cycles: 0
Channel 0
Rank 0
0banks busy for read cycles: 29148204
0banks busy for write cycles: 43656
1banks busy for read cycles: 25236277
1banks busy for write cycles: 6457409
2banks busy for read cycles: 14653421
2banks busy for write cycles: 2342439
3banks busy for read cycles: 10692831
3banks busy for write cycles: 1162833
4banks busy for read cycles: 8605075
4banks busy for write cycles: 719204
5banks busy for read cycles: 6498138
5banks busy for write cycles: 537411
6banks busy for read cycles: 5046955
6banks busy for write cycles: 537870
7banks busy for read cycles: 3568139
7banks busy for write cycles: 1763531
8banks busy for read cycles: 2277049
8banks busy for write cycles: 12435263

CPU 0 Branch Prediction Accuracy: 94.9774% MPKI: 9.10312 Average ROB Occupancy at Mispredict: 47.7412
Branch types
NOT_BRANCH: 40937747 81.8755%
BRANCH_DIRECT_JUMP: 51581 0.103162%
BRANCH_INDIRECT: 18 3.6e-05%
BRANCH_CONDITIONAL: 9006938 18.0139%
BRANCH_DIRECT_CALL: 1703 0.003406%
BRANCH_INDIRECT_CALL: 102 0.000204%
BRANCH_RETURN: 1801 0.003602%
BRANCH_OTHER: 0 0%

DRAM PAGES: 1048576
Allocated PAGES: 7959
