
*** ChampSim Multicore Out-of-Order Simulator ***

Warmup Instructions: 50000000
Simulation Instructions: 50000000
Number of CPUs: 1
LLC sets: 2048
LLC ways: 16
Off-chip DRAM Size: 4096 MB Channels: 1 Width: 64-bit Data Rate: 6400 MT/s
CPU 0 runs traces/SPEC-CPU2017/450.soplex-247B.champsimtrace.xz
.xz
CPU 0 Bimodal branch predictor
BTB has LRU replacement policy
ITLB has LRU replacement policy
DTLB has LRU replacement policy
STLB has LRU replacement policy
L1I has LRU replacement policy
Ideal ISB Prefetching
L1D has LRU replacement policy
L2C has LRU replacement policy
LLC has LRU replacement policy
Heartbeat CPU 0 instructions: 10000002 cycles: 3575406 heartbeat IPC: 2.79689 cumulative IPC: 2.79689 (Simulation time: 0 hr 3 min 7 sec) 
Heartbeat CPU 0 instructions: 20000000 cycles: 6846523 heartbeat IPC: 3.05706 cumulative IPC: 2.92119 (Simulation time: 0 hr 6 min 47 sec) 
Heartbeat CPU 0 instructions: 30000002 cycles: 10076577 heartbeat IPC: 3.09592 cumulative IPC: 2.9772 (Simulation time: 0 hr 10 min 40 sec) 
Heartbeat CPU 0 instructions: 40000000 cycles: 13310503 heartbeat IPC: 3.09222 cumulative IPC: 3.00515 (Simulation time: 0 hr 14 min 35 sec) 
Heartbeat CPU 0 instructions: 50000000 cycles: 16537073 heartbeat IPC: 3.09927 cumulative IPC: 3.02351 (Simulation time: 0 hr 18 min 46 sec) 

Warmup complete CPU 0 instructions: 50000004 cycles: 16537074 (Simulation time: 0 hr 18 min 46 sec) 

Heartbeat CPU 0 instructions: 60000000 cycles: 41797148 heartbeat IPC: 0.395882 cumulative IPC: 0.395882 (Simulation time: 0 hr 23 min 13 sec) 
Heartbeat CPU 0 instructions: 70000002 cycles: 68319539 heartbeat IPC: 0.37704 cumulative IPC: 0.386231 (Simulation time: 0 hr 27 min 27 sec) 
Heartbeat CPU 0 instructions: 80000000 cycles: 93962744 heartbeat IPC: 0.389967 cumulative IPC: 0.387468 (Simulation time: 0 hr 31 min 36 sec) 
Heartbeat CPU 0 instructions: 90000002 cycles: 120383449 heartbeat IPC: 0.378491 cumulative IPC: 0.385184 (Simulation time: 0 hr 35 min 57 sec) 
Heartbeat CPU 0 instructions: 100000000 cycles: 145052195 heartbeat IPC: 0.405371 cumulative IPC: 0.389059 (Simulation time: 0 hr 40 min 2 sec) 
Finished CPU 0 instructions: 50000000 cycles: 128515129 cumulative IPC: 0.389059 (Simulation time: 0 hr 40 min 2 sec) 

ChampSim completed all CPUs

Region of Interest Statistics

CPU 0 cumulative IPC: 0.389059 instructions: 50000000 cycles: 128515129
ITLB TOTAL     ACCESS:    8597057  HIT:    8597057  MISS:          0  HIT %:        100  MISS %:          0   MPKI: 0
ITLB LOAD TRANSLATION ACCESS:    8597057  HIT:    8597057  MISS:          0  HIT %:        100  MISS %:          0   MPKI: 0
ITLB PREFETCH  REQUESTED:          0  ISSUED:          0  USEFUL:          0  USELESS:          0
ITLB USEFUL LOAD PREFETCHES:          0 PREFETCH ISSUED TO LOWER LEVEL:          0  ACCURACY: -nan
ITLB TIMELY PREFETCHES:          0 LATE PREFETCHES: 0 DROPPED PREFETCHES: 0
ITLB PREFETCHES SAME FILL-ORIGIN LEVEL: 0 DIFFERENT FILL-ORIGIN LEVEL: 0
ITLB AVERAGE MISS LATENCY: -nan cycles
ITLB RQ	ACCESS:    9609174	FORWARD:          0	MERGED:    1012117	TO_CACHE:    8597057

DTLB TOTAL     ACCESS:    9641169  HIT:    9367365  MISS:     273804  HIT %:    97.1601  MISS %:    2.83995   MPKI: 5.47608
DTLB LOAD TRANSLATION ACCESS:    9641169  HIT:    9367365  MISS:     273804  HIT %:    97.1601  MISS %:    2.83995   MPKI: 5.47608
DTLB PREFETCH  REQUESTED:          0  ISSUED:          0  USEFUL:          0  USELESS:          0
DTLB USEFUL LOAD PREFETCHES:          0 PREFETCH ISSUED TO LOWER LEVEL:          0  ACCURACY: -nan
DTLB TIMELY PREFETCHES:          0 LATE PREFETCHES: 0 DROPPED PREFETCHES: 0
DTLB PREFETCHES SAME FILL-ORIGIN LEVEL: 0 DIFFERENT FILL-ORIGIN LEVEL: 0
DTLB AVERAGE MISS LATENCY: 12.963 cycles
DTLB RQ	ACCESS:   10901739	FORWARD:          0	MERGED:    1217857	TO_CACHE:    9683882

STLB TOTAL     ACCESS:    4684495  HIT:    4641624  MISS:      42871  HIT %:    99.0848  MISS %:   0.915168   MPKI: 0.85742
STLB LOAD TRANSLATION ACCESS:     273804  HIT:     267845  MISS:       5959  HIT %:    97.8236  MISS %:    2.17637   MPKI: 0.11918
STLB TRANSLATION FROM L1D PREFETCHER ACCESS:    4410691  HIT:    4373779  MISS:      36912  HIT %:    99.1631  MISS %:   0.836876   MPKI: 0.73824
STLB PREFETCH  REQUESTED:          0  ISSUED:          0  USEFUL:      36488  USELESS:        428
STLB USEFUL LOAD PREFETCHES:      36488 PREFETCH ISSUED TO LOWER LEVEL:          0  ACCURACY: inf
STLB TIMELY PREFETCHES:      36488 LATE PREFETCHES: 91 DROPPED PREFETCHES: 0
STLB PREFETCHES SAME FILL-ORIGIN LEVEL: 0 DIFFERENT FILL-ORIGIN LEVEL: 0
STLB AVERAGE MISS LATENCY: 125.261 cycles
STLB RQ	ACCESS:   11711118	FORWARD:          0	MERGED:    7026019	TO_CACHE:    4685099

STLB Hit, L1D data hit: 0
STLB Hit, L2C data hit: 0
STLB Hit, LLC data hit: 0
STLB Hit, LLC data miss: 0
STLB STLB hints to L2: 0
L1D TOTAL     ACCESS:   20210561  HIT:   16976242  MISS:    3234319  HIT %:    83.9969  MISS %:    16.0031   MPKI: 64.6864
L1D LOAD      ACCESS:    7506960  HIT:    6149715  MISS:    1357245  HIT %:    81.9202  MISS %:    18.0798   MPKI: 27.1449
L1D RFO       ACCESS:    2179903  HIT:    1883686  MISS:     296217  HIT %:    86.4115  MISS %:    13.5885   MPKI: 5.92434
L1D PREFETCH  ACCESS:   10523698  HIT:    8942841  MISS:    1580857  HIT %:    84.9781  MISS %:    15.0219   MPKI: 31.6171
AGUS PREFETCH L1 MISS: 0
L1D PREFETCH  REQUESTED:   30795917  ISSUED:   23669067  USEFUL:     932567  USELESS:     648397
L1D USEFUL LOAD PREFETCHES:     932567 PREFETCH ISSUED TO LOWER LEVEL:    1624722  ACCURACY: 57.3986
L1D TIMELY PREFETCHES:     932567 LATE PREFETCHES: 43863 DROPPED PREFETCHES: 0
L1D PREFETCHES SAME FILL-ORIGIN LEVEL: 1624722 DIFFERENT FILL-ORIGIN LEVEL: 0
L1D AVERAGE MISS LATENCY: 165.415 cycles
L1D RQ	ACCESS:   14858197	FORWARD:          0	MERGED:    6991297	TO_CACHE:    7862318
L1D WQ	ACCESS:    3057587	FORWARD:       4809	MERGED:      18166	TO_CACHE:    3039421
L1D PQ	ACCESS:   12231753	FORWARD:          0	MERGED:     794212	TO_CACHE:   11437314

L1D UNIQUE REGIONS ACCESSED: 0
L1D REGIONS CONFLICTS: 0
L1D Cross Page Prefetch Requests: 7578966
L1D Same Page Prefetch Requests: 16594338
L1D ROI Sum of L1D PQ occupancy: 203736160
L1D PREFETCHES PUSHED FROM L2C: 0
L1I TOTAL     ACCESS:    9609139  HIT:    9609029  MISS:        110  HIT %:    99.9989  MISS %: 0.00114474   MPKI: 0.0022
L1I LOAD      ACCESS:    9609139  HIT:    9609029  MISS:        110  HIT %:    99.9989  MISS %: 0.00114474   MPKI: 0.0022
L1I PREFETCH  REQUESTED:          0  ISSUED:          0  USEFUL:          0  USELESS:          0
L1I USEFUL LOAD PREFETCHES:          0 PREFETCH ISSUED TO LOWER LEVEL:          0  ACCURACY: -nan
L1I TIMELY PREFETCHES:          0 LATE PREFETCHES: 0 DROPPED PREFETCHES: 0
L1I PREFETCHES SAME FILL-ORIGIN LEVEL: 0 DIFFERENT FILL-ORIGIN LEVEL: 0
L1I AVERAGE MISS LATENCY: 243.182 cycles
L1I RQ	ACCESS:   13877696	FORWARD:          0	MERGED:    4268522	TO_CACHE:    9609174

BTB TOTAL     ACCESS:    6809325  HIT:    6808737  MISS:        588  HIT %:    99.9914  MISS %: 0.00863522   MPKI: 0.01176
BTB BRANCH_DIRECT_JUMP	ACCESS:      51581  HIT:      51508  MISS:         73
BTB BRANCH_INDIRECT	ACCESS:         18  HIT:         11  MISS:          7
BTB BRANCH_CONDITIONAL	ACCESS:    6754120  HIT:    6753916  MISS:        204
BTB BRANCH_DIRECT_CALL	ACCESS:       1703  HIT:       1632  MISS:         71
BTB BRANCH_INDIRECT_CALL	ACCESS:        102  HIT:         81  MISS:         21
BTB BRANCH_RETURN	ACCESS:       1801  HIT:       1589  MISS:        212
BTB BRANCH_OTHER ACCESS:          0  HIT:          0  MISS:          0

L2C TOTAL     ACCESS:    4344256  HIT:    2086803  MISS:    2257453  HIT %:    48.0359  MISS %:    51.9641   MPKI: 45.1491
L2C LOAD      ACCESS:    1313424  HIT:     499028  MISS:     814396  HIT %:    37.9944  MISS %:    62.0056   MPKI: 16.2879
L2C DATA LOAD MPKI: 16.2857
L2C INSTRUCTION LOAD MPKI: 0.0022
L2C RFO       ACCESS:     296213  HIT:      28140  MISS:     268073  HIT %:    9.49992  MISS %:    90.5001   MPKI: 5.36146
L2C PREFETCH  ACCESS:    1624622  HIT:     460980  MISS:    1163642  HIT %:    28.3746  MISS %:    71.6254   MPKI: 23.2728
AGUS PREFETCH L1 MISS: 0
L2C DATA PREFETCH MPKI: 23.2728
L2C INSTRUCTION PREFETCH MPKI: 0
L2C WRITEBACK ACCESS:    1066900  HIT:    1066855  MISS:         45  HIT %:    99.9958  MISS %: 0.00421783   MPKI: 0.0009
L2C LOAD TRANSLATION ACCESS:       6036  HIT:       4321  MISS:       1715  HIT %:    71.5871  MISS %:    28.4129   MPKI: 0.0343
L2C TRANSLATION FROM L1D PREFETCHER ACCESS:      37061  HIT:      27479  MISS:       9582  HIT %:    74.1453  MISS %:    25.8547   MPKI: 0.19164
L2C PREFETCH  REQUESTED:          0  ISSUED:          0  USEFUL:      94235  USELESS:    1082013
L2C USEFUL LOAD PREFETCHES:      94235 PREFETCH ISSUED TO LOWER LEVEL:    1163642  ACCURACY: 8.09828
L2C TIMELY PREFETCHES:      94235 LATE PREFETCHES: 0 DROPPED PREFETCHES: 0
L2C PREFETCHES SAME FILL-ORIGIN LEVEL: 0 DIFFERENT FILL-ORIGIN LEVEL: 0
L2C AVERAGE MISS LATENCY: 216.442 cycles
L2C RQ	ACCESS:    1652808	FORWARD:          0	MERGED:          0	TO_CACHE:    1652738
L2C WQ	ACCESS:    1066901	FORWARD:        170	MERGED:          0	TO_CACHE:    1066901
L2C PQ	ACCESS:    1624722	FORWARD:          0	MERGED:          0	TO_CACHE:    1624622

L2C Instructions Evicting Data 110
L2C Translations Evicting Data 11207
L2C Data Evicting Data 2234695
L2C Instructions Evicting Instructions 0
L2C Translations Evicting Instructions 1
L2C Data Evicting Instructions 106
L2C Instructions Evicting Translations 0
L2C Translations Evicting Translations 89
L2C Data Evicting Translations 11200
L2C Dense regions hint from L2: 0
PSCL5 TOTAL     ACCESS:      42871  HIT:      42871  MISS:          0  HIT %:        100  MISS %:          0   MPKI: 0
PSCL5 LOAD TRANSLATION ACCESS:       5868  HIT:       5868  MISS:          0  HIT %:        100  MISS %:          0   MPKI: 0
PSCL5 TRANSLATION FROM L1D PREFETCHER ACCESS:      37003  HIT:      37003  MISS:          0  HIT %:        100  MISS %:          0   MPKI: 0
PSCL5 PREFETCH  REQUESTED:          0  ISSUED:          0  USEFUL:          0  USELESS:          0
PSCL5 USEFUL LOAD PREFETCHES:          0 PREFETCH ISSUED TO LOWER LEVEL:          0  ACCURACY: -nan
PSCL5 TIMELY PREFETCHES:          0 LATE PREFETCHES: 0 DROPPED PREFETCHES: 0
PSCL5 PREFETCHES SAME FILL-ORIGIN LEVEL: 0 DIFFERENT FILL-ORIGIN LEVEL: 0

PSCL4 TOTAL     ACCESS:      42871  HIT:      42871  MISS:          0  HIT %:        100  MISS %:          0   MPKI: 0
PSCL4 LOAD TRANSLATION ACCESS:       5868  HIT:       5868  MISS:          0  HIT %:        100  MISS %:          0   MPKI: 0
PSCL4 TRANSLATION FROM L1D PREFETCHER ACCESS:      37003  HIT:      37003  MISS:          0  HIT %:        100  MISS %:          0   MPKI: 0
PSCL4 PREFETCH  REQUESTED:          0  ISSUED:          0  USEFUL:          0  USELESS:          0
PSCL4 USEFUL LOAD PREFETCHES:          0 PREFETCH ISSUED TO LOWER LEVEL:          0  ACCURACY: -nan
PSCL4 TIMELY PREFETCHES:          0 LATE PREFETCHES: 0 DROPPED PREFETCHES: 0
PSCL4 PREFETCHES SAME FILL-ORIGIN LEVEL: 0 DIFFERENT FILL-ORIGIN LEVEL: 0

PSCL3 TOTAL     ACCESS:      42871  HIT:      42871  MISS:          0  HIT %:        100  MISS %:          0   MPKI: 0
PSCL3 LOAD TRANSLATION ACCESS:       5868  HIT:       5868  MISS:          0  HIT %:        100  MISS %:          0   MPKI: 0
PSCL3 TRANSLATION FROM L1D PREFETCHER ACCESS:      37003  HIT:      37003  MISS:          0  HIT %:        100  MISS %:          0   MPKI: 0
PSCL3 PREFETCH  REQUESTED:          0  ISSUED:          0  USEFUL:          0  USELESS:          0
PSCL3 USEFUL LOAD PREFETCHES:          0 PREFETCH ISSUED TO LOWER LEVEL:          0  ACCURACY: -nan
PSCL3 TIMELY PREFETCHES:          0 LATE PREFETCHES: 0 DROPPED PREFETCHES: 0
PSCL3 PREFETCHES SAME FILL-ORIGIN LEVEL: 0 DIFFERENT FILL-ORIGIN LEVEL: 0

PSCL2 TOTAL     ACCESS:      42871  HIT:      42641  MISS:        230  HIT %:    99.4635  MISS %:   0.536493   MPKI: 0.0046
PSCL2 LOAD TRANSLATION ACCESS:       5926  HIT:       5696  MISS:        230  HIT %:    96.1188  MISS %:     3.8812   MPKI: 0.0046
PSCL2 TRANSLATION FROM L1D PREFETCHER ACCESS:      36945  HIT:      36945  MISS:          0  HIT %:        100  MISS %:          0   MPKI: 0
PSCL2 PREFETCH  REQUESTED:          0  ISSUED:          0  USEFUL:          0  USELESS:          0
PSCL2 USEFUL LOAD PREFETCHES:          0 PREFETCH ISSUED TO LOWER LEVEL:          0  ACCURACY: -nan
PSCL2 TIMELY PREFETCHES:          0 LATE PREFETCHES: 0 DROPPED PREFETCHES: 0
PSCL2 PREFETCHES SAME FILL-ORIGIN LEVEL: 0 DIFFERENT FILL-ORIGIN LEVEL: 0

LLC TOTAL     ACCESS:    3035269  HIT:    1235660  MISS:    1799609  HIT %:    40.7101  MISS %:    59.2899   MPKI: 35.9922
LLC LOAD      ACCESS:     814387  HIT:     225313  MISS:     589074  HIT %:    27.6666  MISS %:    72.3334   MPKI: 11.7815
LLC RFO       ACCESS:     268071  HIT:      75442  MISS:     192629  HIT %:    28.1425  MISS %:    71.8575   MPKI: 3.85258
LLC PREFETCH  ACCESS:    1163636  HIT:     155594  MISS:    1008042  HIT %:    13.3714  MISS %:    86.6286   MPKI: 20.1608
AGUS PREFETCH L1 MISS: 0
LLC WRITEBACK ACCESS:     777878  HIT:     777728  MISS:        150  HIT %:    99.9807  MISS %:  0.0192832   MPKI: 0.003
LLC LOAD TRANSLATION ACCESS:       1715  HIT:         90  MISS:       1625  HIT %:    5.24781  MISS %:    94.7522   MPKI: 0.0325
LLC TRANSLATION FROM L1D PREFETCHER ACCESS:       9582  HIT:       1493  MISS:       8089  HIT %:    15.5813  MISS %:    84.4187   MPKI: 0.16178
LLC PREFETCH  REQUESTED:          0  ISSUED:          0  USEFUL:      56756  USELESS:     968818
LLC USEFUL LOAD PREFETCHES:      56756 PREFETCH ISSUED TO LOWER LEVEL:    1008042  ACCURACY: 5.63032
LLC TIMELY PREFETCHES:      56756 LATE PREFETCHES: 0 DROPPED PREFETCHES: 0
LLC PREFETCHES SAME FILL-ORIGIN LEVEL: 0 DIFFERENT FILL-ORIGIN LEVEL: 0
LLC AVERAGE MISS LATENCY: 233.87 cycles
LLC RQ	ACCESS:    1093770	FORWARD:          0	MERGED:          0	TO_CACHE:    1093759
LLC WQ	ACCESS:     777879	FORWARD:         17	MERGED:          0	TO_CACHE:     777879
LLC PQ	ACCESS:    1163642	FORWARD:          0	MERGED:          0	TO_CACHE:    1163636

LLC Dense regions hint to LLC: 0

RAW hits: 150340
Loads Generated: 15008540
Loads sent to L1D: 14858197
Stores Generated: 3057587
Stores sent to L1D: 3057587
Major fault: 0 Minor fault: 7959
Allocated PAGES: 7959
Prefetcher final stats
Training Unit Size: 1017
Addr table size: 241014 241081


Triggers: 15984838
Structural address exists: 12811872 80.1502
No Prediction: 3172966 19.8498
Prefetches issued: 24173304 151.226
Useful Prefetches: 932567
Useless Prefetches: 648397
Stream end: 8823819
No translation: 231673444
%Stream divergence: 681850 4.2656
Stream divergence -- new stream: 0

DRAM Statistics
 CHANNEL 0
 RQ ROW_BUFFER_HIT:     488636  ROW_BUFFER_MISS:    1310365
 DBUS_CONGESTED:        385
 WQ ROW_BUFFER_HIT:     176856  ROW_BUFFER_MISS:     447934  FULL:          0

 AVG_CONGESTED_CYCLE: 4
 All warmup complete: 2
Channel 0 Bank busy for read cycles: 0
Channel 0 Bank busy for write cycles: 0
Channel 0
Rank 0
0banks busy for read cycles: 28241339
0banks busy for write cycles: 43246
1banks busy for read cycles: 23909515
1banks busy for write cycles: 6388416
2banks busy for read cycles: 14165372
2banks busy for write cycles: 2364084
3banks busy for read cycles: 10382004
3banks busy for write cycles: 1175672
4banks busy for read cycles: 8427294
4banks busy for write cycles: 706942
5banks busy for read cycles: 6542764
5banks busy for write cycles: 522006
6banks busy for read cycles: 5263803
6banks busy for write cycles: 513332
7banks busy for read cycles: 3857874
7banks busy for write cycles: 1688129
8banks busy for read cycles: 2382898
8banks busy for write cycles: 11940440

CPU 0 Branch Prediction Accuracy: 94.9774% MPKI: 9.1031 Average ROB Occupancy at Mispredict: 48.0326
Branch types
NOT_BRANCH: 40937695 81.8754%
BRANCH_DIRECT_JUMP: 51581 0.103162%
BRANCH_INDIRECT: 18 3.6e-05%
BRANCH_CONDITIONAL: 9006916 18.0138%
BRANCH_DIRECT_CALL: 1703 0.003406%
BRANCH_INDIRECT_CALL: 102 0.000204%
BRANCH_RETURN: 1801 0.003602%
BRANCH_OTHER: 0 0%

DRAM PAGES: 1048576
Allocated PAGES: 7959
