
*** ChampSim Multicore Out-of-Order Simulator ***

Warmup Instructions: 50000000
Simulation Instructions: 50000000
Number of CPUs: 1
LLC sets: 2048
LLC ways: 16
Off-chip DRAM Size: 4096 MB Channels: 1 Width: 64-bit Data Rate: 6400 MT/s
CPU 0 runs traces/SPEC-CPU2017/450.soplex-247B.champsimtrace.xz
.xz
CPU 0 Bimodal branch predictor
BTB has LRU replacement policy
ITLB has LRU replacement policy
DTLB has LRU replacement policy
STLB has LRU replacement policy
L1I has LRU replacement policy
Ideal ISB Prefetching
L1D has LRU replacement policy
L2C has LRU replacement policy
LLC has LRU replacement policy
Heartbeat CPU 0 instructions: 10000002 cycles: 3570561 heartbeat IPC: 2.80068 cumulative IPC: 2.80068 (Simulation time: 0 hr 1 min 26 sec) 
Heartbeat CPU 0 instructions: 20000000 cycles: 6843425 heartbeat IPC: 3.05543 cumulative IPC: 2.92251 (Simulation time: 0 hr 2 min 49 sec) 
Heartbeat CPU 0 instructions: 30000001 cycles: 10080744 heartbeat IPC: 3.08898 cumulative IPC: 2.97597 (Simulation time: 0 hr 4 min 24 sec) 
Heartbeat CPU 0 instructions: 40000000 cycles: 13320181 heartbeat IPC: 3.08696 cumulative IPC: 3.00296 (Simulation time: 0 hr 5 min 52 sec) 
Heartbeat CPU 0 instructions: 50000000 cycles: 16551255 heartbeat IPC: 3.09495 cumulative IPC: 3.02092 (Simulation time: 0 hr 7 min 20 sec) 

Warmup complete CPU 0 instructions: 50000004 cycles: 16551256 (Simulation time: 0 hr 7 min 20 sec) 

Heartbeat CPU 0 instructions: 60000000 cycles: 42531531 heartbeat IPC: 0.384907 cumulative IPC: 0.384907 (Simulation time: 0 hr 9 min 24 sec) 
Heartbeat CPU 0 instructions: 70000002 cycles: 69933508 heartbeat IPC: 0.364937 cumulative IPC: 0.374656 (Simulation time: 0 hr 11 min 33 sec) 
Heartbeat CPU 0 instructions: 80000000 cycles: 96668222 heartbeat IPC: 0.374045 cumulative IPC: 0.374452 (Simulation time: 0 hr 13 min 43 sec) 
Heartbeat CPU 0 instructions: 90000002 cycles: 124078640 heartbeat IPC: 0.364825 cumulative IPC: 0.371998 (Simulation time: 0 hr 16 min 3 sec) 
Heartbeat CPU 0 instructions: 100000000 cycles: 149692772 heartbeat IPC: 0.390409 cumulative IPC: 0.37554 (Simulation time: 0 hr 18 min 9 sec) 
Finished CPU 0 instructions: 50000000 cycles: 133141524 cumulative IPC: 0.37554 (Simulation time: 0 hr 18 min 9 sec) 

ChampSim completed all CPUs

Region of Interest Statistics

CPU 0 cumulative IPC: 0.37554 instructions: 50000000 cycles: 133141524
ITLB TOTAL     ACCESS:    8601405  HIT:    8601405  MISS:          0  HIT %:        100  MISS %:          0   MPKI: 0
ITLB LOAD TRANSLATION ACCESS:    8601405  HIT:    8601405  MISS:          0  HIT %:        100  MISS %:          0   MPKI: 0
ITLB PREFETCH  REQUESTED:          0  ISSUED:          0  USEFUL:          0  USELESS:          0
ITLB USEFUL LOAD PREFETCHES:          0 PREFETCH ISSUED TO LOWER LEVEL:          0  ACCURACY: -nan
ITLB TIMELY PREFETCHES:          0 LATE PREFETCHES: 0 DROPPED PREFETCHES: 0
ITLB PREFETCHES SAME FILL-ORIGIN LEVEL: 0 DIFFERENT FILL-ORIGIN LEVEL: 0
ITLB AVERAGE MISS LATENCY: -nan cycles
ITLB RQ	ACCESS:    9613991	FORWARD:          0	MERGED:    1012586	TO_CACHE:    8601405

DTLB TOTAL     ACCESS:    9589031  HIT:    9315262  MISS:     273769  HIT %:     97.145  MISS %:    2.85502   MPKI: 5.47538
DTLB LOAD TRANSLATION ACCESS:    9589031  HIT:    9315262  MISS:     273769  HIT %:     97.145  MISS %:    2.85502   MPKI: 5.47538
DTLB PREFETCH  REQUESTED:          0  ISSUED:          0  USEFUL:          0  USELESS:          0
DTLB USEFUL LOAD PREFETCHES:          0 PREFETCH ISSUED TO LOWER LEVEL:          0  ACCURACY: -nan
DTLB TIMELY PREFETCHES:          0 LATE PREFETCHES: 0 DROPPED PREFETCHES: 0
DTLB PREFETCHES SAME FILL-ORIGIN LEVEL: 0 DIFFERENT FILL-ORIGIN LEVEL: 0
DTLB AVERAGE MISS LATENCY: 13.6637 cycles
DTLB RQ	ACCESS:   10860925	FORWARD:          0	MERGED:    1227875	TO_CACHE:    9633050

STLB TOTAL     ACCESS:    1492039  HIT:    1449023  MISS:      43016  HIT %:     97.117  MISS %:    2.88303   MPKI: 0.86032
STLB LOAD TRANSLATION ACCESS:     273769  HIT:     264614  MISS:       9155  HIT %:    96.6559  MISS %:    3.34406   MPKI: 0.1831
STLB TRANSLATION FROM L1D PREFETCHER ACCESS:    1218270  HIT:    1184409  MISS:      33861  HIT %:    97.2206  MISS %:    2.77943   MPKI: 0.67722
STLB PREFETCH  REQUESTED:          0  ISSUED:          0  USEFUL:      33094  USELESS:        777
STLB USEFUL LOAD PREFETCHES:      33094 PREFETCH ISSUED TO LOWER LEVEL:          0  ACCURACY: inf
STLB TIMELY PREFETCHES:      33094 LATE PREFETCHES: 320 DROPPED PREFETCHES: 0
STLB PREFETCHES SAME FILL-ORIGIN LEVEL: 0 DIFFERENT FILL-ORIGIN LEVEL: 0
STLB AVERAGE MISS LATENCY: 142.771 cycles
STLB RQ	ACCESS:    2679778	FORWARD:          0	MERGED:    1186636	TO_CACHE:    1493142

STLB Hit, L1D data hit: 0
STLB Hit, L2C data hit: 0
STLB Hit, LLC data hit: 0
STLB Hit, LLC data miss: 0
STLB STLB hints to L2: 0
L1D TOTAL     ACCESS:   11554549  HIT:    8269958  MISS:    3284591  HIT %:    71.5732  MISS %:    28.4268   MPKI: 65.6918
L1D LOAD      ACCESS:    7424967  HIT:    5928576  MISS:    1496391  HIT %:    79.8465  MISS %:    20.1535   MPKI: 29.9278
L1D RFO       ACCESS:    2178422  HIT:    1882324  MISS:     296098  HIT %:    86.4077  MISS %:    13.5923   MPKI: 5.92196
L1D PREFETCH  ACCESS:    1951160  HIT:     459058  MISS:    1492102  HIT %:    23.5274  MISS %:    76.4726   MPKI: 29.842
AGUS PREFETCH L1 MISS: 0
L1D PREFETCH  REQUESTED:    5487399  ISSUED:    4976285  USEFUL:     793260  USELESS:     698973
L1D USEFUL LOAD PREFETCHES:     793260 PREFETCH ISSUED TO LOWER LEVEL:    1553697  ACCURACY: 51.0563
L1D TIMELY PREFETCHES:     793260 LATE PREFETCHES: 61592 DROPPED PREFETCHES: 0
L1D PREFETCHES SAME FILL-ORIGIN LEVEL: 1553697 DIFFERENT FILL-ORIGIN LEVEL: 0
L1D AVERAGE MISS LATENCY: 152.442 cycles
L1D RQ	ACCESS:   14858326	FORWARD:          0	MERGED:    7032287	TO_CACHE:    7821434
L1D WQ	ACCESS:    3057587	FORWARD:       4797	MERGED:      18096	TO_CACHE:    3039491
L1D PQ	ACCESS:    2570276	FORWARD:          0	MERGED:     164075	TO_CACHE:    2406009

L1D UNIQUE REGIONS ACCESSED: 0
L1D REGIONS CONFLICTS: 0
L1D Cross Page Prefetch Requests: 2331631
L1D Same Page Prefetch Requests: 2533092
L1D ROI Sum of L1D PQ occupancy: 60962867
L1D PREFETCHES PUSHED FROM L2C: 0
L1I TOTAL     ACCESS:    9613956  HIT:    9613846  MISS:        110  HIT %:    99.9989  MISS %: 0.00114417   MPKI: 0.0022
L1I LOAD      ACCESS:    9613956  HIT:    9613846  MISS:        110  HIT %:    99.9989  MISS %: 0.00114417   MPKI: 0.0022
L1I PREFETCH  REQUESTED:          0  ISSUED:          0  USEFUL:          0  USELESS:          0
L1I USEFUL LOAD PREFETCHES:          0 PREFETCH ISSUED TO LOWER LEVEL:          0  ACCURACY: -nan
L1I TIMELY PREFETCHES:          0 LATE PREFETCHES: 0 DROPPED PREFETCHES: 0
L1I PREFETCHES SAME FILL-ORIGIN LEVEL: 0 DIFFERENT FILL-ORIGIN LEVEL: 0
L1I AVERAGE MISS LATENCY: 236.936 cycles
L1I RQ	ACCESS:   13903848	FORWARD:          0	MERGED:    4289857	TO_CACHE:    9613991

BTB TOTAL     ACCESS:    6809340  HIT:    6808752  MISS:        588  HIT %:    99.9914  MISS %:  0.0086352   MPKI: 0.01176
BTB BRANCH_DIRECT_JUMP	ACCESS:      51581  HIT:      51508  MISS:         73
BTB BRANCH_INDIRECT	ACCESS:         18  HIT:         11  MISS:          7
BTB BRANCH_CONDITIONAL	ACCESS:    6754135  HIT:    6753931  MISS:        204
BTB BRANCH_DIRECT_CALL	ACCESS:       1703  HIT:       1632  MISS:         71
BTB BRANCH_INDIRECT_CALL	ACCESS:        102  HIT:         81  MISS:         21
BTB BRANCH_RETURN	ACCESS:       1801  HIT:       1589  MISS:        212
BTB BRANCH_OTHER ACCESS:          0  HIT:          0  MISS:          0

L2C TOTAL     ACCESS:    4394585  HIT:    2129224  MISS:    2265361  HIT %:    48.4511  MISS %:    51.5489   MPKI: 45.3072
L2C LOAD      ACCESS:    1434785  HIT:     504759  MISS:     930026  HIT %:    35.1801  MISS %:    64.8199   MPKI: 18.6005
L2C DATA LOAD MPKI: 18.5983
L2C INSTRUCTION LOAD MPKI: 0.0022
L2C RFO       ACCESS:     296088  HIT:      27919  MISS:     268169  HIT %:    9.42929  MISS %:    90.5707   MPKI: 5.36338
L2C PREFETCH  ACCESS:    1553618  HIT:     497928  MISS:    1055690  HIT %:    32.0496  MISS %:    67.9504   MPKI: 21.1138
AGUS PREFETCH L1 MISS: 0
L2C DATA PREFETCH MPKI: 21.1138
L2C INSTRUCTION PREFETCH MPKI: 0
L2C WRITEBACK ACCESS:    1066854  HIT:    1066815  MISS:         39  HIT %:    99.9963  MISS %: 0.00365561   MPKI: 0.00078
L2C LOAD TRANSLATION ACCESS:       8999  HIT:       6801  MISS:       2198  HIT %:    75.5751  MISS %:    24.4249   MPKI: 0.04396
L2C TRANSLATION FROM L1D PREFETCHER ACCESS:      34241  HIT:      25002  MISS:       9239  HIT %:    73.0177  MISS %:    26.9823   MPKI: 0.18478
L2C PREFETCH  REQUESTED:          0  ISSUED:          0  USEFUL:     106062  USELESS:     961621
L2C USEFUL LOAD PREFETCHES:     106062 PREFETCH ISSUED TO LOWER LEVEL:    1055690  ACCURACY: 10.0467
L2C TIMELY PREFETCHES:     106062 LATE PREFETCHES: 0 DROPPED PREFETCHES: 0
L2C PREFETCHES SAME FILL-ORIGIN LEVEL: 0 DIFFERENT FILL-ORIGIN LEVEL: 0
L2C AVERAGE MISS LATENCY: 199.847 cycles
L2C RQ	ACCESS:    1774248	FORWARD:          0	MERGED:          0	TO_CACHE:    1774117
L2C WQ	ACCESS:    1066855	FORWARD:        210	MERGED:          0	TO_CACHE:    1066855
L2C PQ	ACCESS:    1553697	FORWARD:          0	MERGED:          0	TO_CACHE:    1553618

L2C Instructions Evicting Data 110
L2C Translations Evicting Data 11348
L2C Data Evicting Data 2242327
L2C Instructions Evicting Instructions 0
L2C Translations Evicting Instructions 1
L2C Data Evicting Instructions 106
L2C Instructions Evicting Translations 0
L2C Translations Evicting Translations 88
L2C Data Evicting Translations 11342
L2C Dense regions hint from L2: 0
PSCL5 TOTAL     ACCESS:      43016  HIT:      43016  MISS:          0  HIT %:        100  MISS %:          0   MPKI: 0
PSCL5 LOAD TRANSLATION ACCESS:       8835  HIT:       8835  MISS:          0  HIT %:        100  MISS %:          0   MPKI: 0
PSCL5 TRANSLATION FROM L1D PREFETCHER ACCESS:      34181  HIT:      34181  MISS:          0  HIT %:        100  MISS %:          0   MPKI: 0
PSCL5 PREFETCH  REQUESTED:          0  ISSUED:          0  USEFUL:          0  USELESS:          0
PSCL5 USEFUL LOAD PREFETCHES:          0 PREFETCH ISSUED TO LOWER LEVEL:          0  ACCURACY: -nan
PSCL5 TIMELY PREFETCHES:          0 LATE PREFETCHES: 0 DROPPED PREFETCHES: 0
PSCL5 PREFETCHES SAME FILL-ORIGIN LEVEL: 0 DIFFERENT FILL-ORIGIN LEVEL: 0

PSCL4 TOTAL     ACCESS:      43016  HIT:      43016  MISS:          0  HIT %:        100  MISS %:          0   MPKI: 0
PSCL4 LOAD TRANSLATION ACCESS:       8835  HIT:       8835  MISS:          0  HIT %:        100  MISS %:          0   MPKI: 0
PSCL4 TRANSLATION FROM L1D PREFETCHER ACCESS:      34181  HIT:      34181  MISS:          0  HIT %:        100  MISS %:          0   MPKI: 0
PSCL4 PREFETCH  REQUESTED:          0  ISSUED:          0  USEFUL:          0  USELESS:          0
PSCL4 USEFUL LOAD PREFETCHES:          0 PREFETCH ISSUED TO LOWER LEVEL:          0  ACCURACY: -nan
PSCL4 TIMELY PREFETCHES:          0 LATE PREFETCHES: 0 DROPPED PREFETCHES: 0
PSCL4 PREFETCHES SAME FILL-ORIGIN LEVEL: 0 DIFFERENT FILL-ORIGIN LEVEL: 0

PSCL3 TOTAL     ACCESS:      43016  HIT:      43016  MISS:          0  HIT %:        100  MISS %:          0   MPKI: 0
PSCL3 LOAD TRANSLATION ACCESS:       8835  HIT:       8835  MISS:          0  HIT %:        100  MISS %:          0   MPKI: 0
PSCL3 TRANSLATION FROM L1D PREFETCHER ACCESS:      34181  HIT:      34181  MISS:          0  HIT %:        100  MISS %:          0   MPKI: 0
PSCL3 PREFETCH  REQUESTED:          0  ISSUED:          0  USEFUL:          0  USELESS:          0
PSCL3 USEFUL LOAD PREFETCHES:          0 PREFETCH ISSUED TO LOWER LEVEL:          0  ACCURACY: -nan
PSCL3 TIMELY PREFETCHES:          0 LATE PREFETCHES: 0 DROPPED PREFETCHES: 0
PSCL3 PREFETCHES SAME FILL-ORIGIN LEVEL: 0 DIFFERENT FILL-ORIGIN LEVEL: 0

PSCL2 TOTAL     ACCESS:      43016  HIT:      42788  MISS:        228  HIT %:      99.47  MISS %:   0.530035   MPKI: 0.00456
PSCL2 LOAD TRANSLATION ACCESS:       8895  HIT:       8667  MISS:        228  HIT %:    97.4368  MISS %:    2.56324   MPKI: 0.00456
PSCL2 TRANSLATION FROM L1D PREFETCHER ACCESS:      34121  HIT:      34121  MISS:          0  HIT %:        100  MISS %:          0   MPKI: 0
PSCL2 PREFETCH  REQUESTED:          0  ISSUED:          0  USEFUL:          0  USELESS:          0
PSCL2 USEFUL LOAD PREFETCHES:          0 PREFETCH ISSUED TO LOWER LEVEL:          0  ACCURACY: -nan
PSCL2 TIMELY PREFETCHES:          0 LATE PREFETCHES: 0 DROPPED PREFETCHES: 0
PSCL2 PREFETCHES SAME FILL-ORIGIN LEVEL: 0 DIFFERENT FILL-ORIGIN LEVEL: 0

LLC TOTAL     ACCESS:    3044046  HIT:    1243329  MISS:    1800717  HIT %:    40.8446  MISS %:    59.1554   MPKI: 36.0143
LLC LOAD      ACCESS:     930019  HIT:     219906  MISS:     710113  HIT %:    23.6453  MISS %:    76.3547   MPKI: 14.2023
LLC RFO       ACCESS:     268169  HIT:      75368  MISS:     192801  HIT %:    28.1047  MISS %:    71.8953   MPKI: 3.85602
LLC PREFETCH  ACCESS:    1055688  HIT:     167815  MISS:     887873  HIT %:    15.8963  MISS %:    84.1037   MPKI: 17.7575
AGUS PREFETCH L1 MISS: 0
LLC WRITEBACK ACCESS:     778733  HIT:     778596  MISS:        137  HIT %:    99.9824  MISS %:  0.0175927   MPKI: 0.00274
LLC LOAD TRANSLATION ACCESS:       2198  HIT:        173  MISS:       2025  HIT %:    7.87079  MISS %:    92.1292   MPKI: 0.0405
LLC TRANSLATION FROM L1D PREFETCHER ACCESS:       9239  HIT:       1471  MISS:       7768  HIT %:    15.9216  MISS %:    84.0784   MPKI: 0.15536
LLC PREFETCH  REQUESTED:          0  ISSUED:          0  USEFUL:      63287  USELESS:     840626
LLC USEFUL LOAD PREFETCHES:      63287 PREFETCH ISSUED TO LOWER LEVEL:     887873  ACCURACY: 7.12793
LLC TIMELY PREFETCHES:      63287 LATE PREFETCHES: 0 DROPPED PREFETCHES: 0
LLC PREFETCHES SAME FILL-ORIGIN LEVEL: 0 DIFFERENT FILL-ORIGIN LEVEL: 0
LLC AVERAGE MISS LATENCY: 213.667 cycles
LLC RQ	ACCESS:    1209636	FORWARD:          0	MERGED:          0	TO_CACHE:    1209629
LLC WQ	ACCESS:     778734	FORWARD:          9	MERGED:          0	TO_CACHE:     778734
LLC PQ	ACCESS:    1055690	FORWARD:          0	MERGED:          0	TO_CACHE:    1055688

LLC Dense regions hint to LLC: 0

RAW hits: 150221
Loads Generated: 15008550
Loads sent to L1D: 14858326
Stores Generated: 3057587
Stores sent to L1D: 3057587
Major fault: 0 Minor fault: 7959
Allocated PAGES: 7959
Prefetcher final stats
Training Unit Size: 2399
Addr table size: 240732 241921


Triggers: 15934353
Structural address exists: 2927316 18.3711
No Prediction: 13007037 81.6289
Prefetches issued: 4864723 30.5298
Useful Prefetches: 793260
Useless Prefetches: 698973
Stream end: 2641113
No translation: 2681681219
%Stream divergence: 1000426 6.27842
Stream divergence -- new stream: 0

DRAM Statistics
 CHANNEL 0
 RQ ROW_BUFFER_HIT:     523503  ROW_BUFFER_MISS:    1276661
 DBUS_CONGESTED:        349
 WQ ROW_BUFFER_HIT:     176628  ROW_BUFFER_MISS:     449930  FULL:          0

 AVG_CONGESTED_CYCLE: 5
 All warmup complete: 2
Channel 0 Bank busy for read cycles: 0
Channel 0 Bank busy for write cycles: 0
Channel 0
Rank 0
0banks busy for read cycles: 36559814
0banks busy for write cycles: 55466
1banks busy for read cycles: 23313091
1banks busy for write cycles: 7489645
2banks busy for read cycles: 11697682
2banks busy for write cycles: 2958186
3banks busy for read cycles: 8048314
3banks busy for write cycles: 1620728
4banks busy for read cycles: 6544033
4banks busy for write cycles: 1138880
5banks busy for read cycles: 5263889
5banks busy for write cycles: 1005957
6banks busy for read cycles: 4994131
6banks busy for write cycles: 1015838
7banks busy for read cycles: 4488943
7banks busy for write cycles: 2047381
8banks busy for read cycles: 4574509
8banks busy for write cycles: 10325038

CPU 0 Branch Prediction Accuracy: 94.9774% MPKI: 9.10314 Average ROB Occupancy at Mispredict: 48.2975
Branch types
NOT_BRANCH: 40937791 81.8756%
BRANCH_DIRECT_JUMP: 51581 0.103162%
BRANCH_INDIRECT: 18 3.6e-05%
BRANCH_CONDITIONAL: 9006954 18.0139%
BRANCH_DIRECT_CALL: 1703 0.003406%
BRANCH_INDIRECT_CALL: 102 0.000204%
BRANCH_RETURN: 1801 0.003602%
BRANCH_OTHER: 0 0%

DRAM PAGES: 1048576
Allocated PAGES: 7959
