
*** ChampSim Multicore Out-of-Order Simulator ***

Warmup Instructions: 50000000
Simulation Instructions: 50000000
Number of CPUs: 1
LLC sets: 2048
LLC ways: 16
Off-chip DRAM Size: 4096 MB Channels: 1 Width: 64-bit Data Rate: 6400 MT/s
CPU 0 runs traces/SPEC-CPU2017/471.omnetpp-188B.champsimtrace.xz
.xz
CPU 0 Bimodal branch predictor
BTB has LRU replacement policy
ITLB has LRU replacement policy
DTLB has LRU replacement policy
STLB has LRU replacement policy
L1I has LRU replacement policy
Ideal ISB Prefetching
L1D has LRU replacement policy
L2C has LRU replacement policy
LLC has LRU replacement policy
Heartbeat CPU 0 instructions: 10000001 cycles: 3270320 heartbeat IPC: 3.05781 cumulative IPC: 3.05781 (Simulation time: 0 hr 1 min 19 sec) 
Heartbeat CPU 0 instructions: 20000000 cycles: 6498036 heartbeat IPC: 3.09817 cumulative IPC: 3.07785 (Simulation time: 0 hr 2 min 47 sec) 
Heartbeat CPU 0 instructions: 30000000 cycles: 9735382 heartbeat IPC: 3.08895 cumulative IPC: 3.08154 (Simulation time: 0 hr 4 min 37 sec) 
Heartbeat CPU 0 instructions: 40000000 cycles: 12968250 heartbeat IPC: 3.09323 cumulative IPC: 3.08446 (Simulation time: 0 hr 6 min 24 sec) 
Heartbeat CPU 0 instructions: 50000003 cycles: 16183765 heartbeat IPC: 3.10992 cumulative IPC: 3.08952 (Simulation time: 0 hr 8 min 15 sec) 

Warmup complete CPU 0 instructions: 50000003 cycles: 16183765 (Simulation time: 0 hr 8 min 15 sec) 

Heartbeat CPU 0 instructions: 60000000 cycles: 51853701 heartbeat IPC: 0.280348 cumulative IPC: 0.280348 (Simulation time: 0 hr 10 min 22 sec) 
Heartbeat CPU 0 instructions: 70000001 cycles: 85789182 heartbeat IPC: 0.294677 cumulative IPC: 0.287334 (Simulation time: 0 hr 12 min 37 sec) 
Heartbeat CPU 0 instructions: 80000000 cycles: 120048725 heartbeat IPC: 0.291889 cumulative IPC: 0.288837 (Simulation time: 0 hr 15 min 1 sec) 
Heartbeat CPU 0 instructions: 90000003 cycles: 154043333 heartbeat IPC: 0.294164 cumulative IPC: 0.29015 (Simulation time: 0 hr 17 min 18 sec) 
Heartbeat CPU 0 instructions: 100000000 cycles: 188303502 heartbeat IPC: 0.291884 cumulative IPC: 0.290495 (Simulation time: 0 hr 19 min 42 sec) 
Finished CPU 0 instructions: 50000000 cycles: 172119746 cumulative IPC: 0.290495 (Simulation time: 0 hr 19 min 42 sec) 

ChampSim completed all CPUs

Region of Interest Statistics

CPU 0 cumulative IPC: 0.290495 instructions: 50000000 cycles: 172119746
ITLB TOTAL     ACCESS:    8718602  HIT:    8701399  MISS:      17203  HIT %:    99.8027  MISS %:   0.197314   MPKI: 0.34406
ITLB LOAD TRANSLATION ACCESS:    8718602  HIT:    8701399  MISS:      17203  HIT %:    99.8027  MISS %:   0.197314   MPKI: 0.34406
ITLB PREFETCH  REQUESTED:          0  ISSUED:          0  USEFUL:          0  USELESS:          0
ITLB USEFUL LOAD PREFETCHES:          0 PREFETCH ISSUED TO LOWER LEVEL:          0  ACCURACY: -nan
ITLB TIMELY PREFETCHES:          0 LATE PREFETCHES: 0 DROPPED PREFETCHES: 0
ITLB PREFETCHES SAME FILL-ORIGIN LEVEL: 0 DIFFERENT FILL-ORIGIN LEVEL: 0
ITLB AVERAGE MISS LATENCY: 11.9211 cycles
ITLB RQ	ACCESS:    9808274	FORWARD:          0	MERGED:    1082057	TO_CACHE:    8726217

DTLB TOTAL     ACCESS:   14698010  HIT:   13740357  MISS:     957653  HIT %:    93.4845  MISS %:    6.51553   MPKI: 19.1531
DTLB LOAD TRANSLATION ACCESS:   14698010  HIT:   13740357  MISS:     957653  HIT %:    93.4845  MISS %:    6.51553   MPKI: 19.1531
DTLB PREFETCH  REQUESTED:          0  ISSUED:          0  USEFUL:          0  USELESS:          0
DTLB USEFUL LOAD PREFETCHES:          0 PREFETCH ISSUED TO LOWER LEVEL:          0  ACCURACY: -nan
DTLB TIMELY PREFETCHES:          0 LATE PREFETCHES: 0 DROPPED PREFETCHES: 0
DTLB PREFETCHES SAME FILL-ORIGIN LEVEL: 0 DIFFERENT FILL-ORIGIN LEVEL: 0
DTLB AVERAGE MISS LATENCY: 16.4856 cycles
DTLB RQ	ACCESS:   17860684	FORWARD:          0	MERGED:    3117867	TO_CACHE:   14742817

STLB TOTAL     ACCESS:    1829652  HIT:    1488747  MISS:     340905  HIT %:    81.3678  MISS %:    18.6322   MPKI: 6.8181
STLB LOAD TRANSLATION ACCESS:     974856  HIT:     870696  MISS:     104160  HIT %:    89.3153  MISS %:    10.6847   MPKI: 2.0832
STLB TRANSLATION FROM L1D PREFETCHER ACCESS:     854796  HIT:     618051  MISS:     236745  HIT %:    72.3039  MISS %:    27.6961   MPKI: 4.7349
STLB PREFETCH  REQUESTED:          0  ISSUED:          0  USEFUL:     155271  USELESS:      81329
STLB USEFUL LOAD PREFETCHES:     155271 PREFETCH ISSUED TO LOWER LEVEL:          0  ACCURACY: inf
STLB TIMELY PREFETCHES:     155271 LATE PREFETCHES: 946 DROPPED PREFETCHES: 0
STLB PREFETCHES SAME FILL-ORIGIN LEVEL: 0 DIFFERENT FILL-ORIGIN LEVEL: 0
STLB AVERAGE MISS LATENCY: 106.434 cycles
STLB RQ	ACCESS:    1951148	FORWARD:          0	MERGED:     118282	TO_CACHE:    1832866

STLB Hit, L1D data hit: 0
STLB Hit, L2C data hit: 0
STLB Hit, LLC data hit: 0
STLB Hit, LLC data miss: 0
STLB STLB hints to L2: 0
L1D TOTAL     ACCESS:   18325737  HIT:   16797569  MISS:    1528168  HIT %:    91.6611  MISS %:    8.33892   MPKI: 30.5634
L1D LOAD      ACCESS:    9499510  HIT:    8937816  MISS:     561694  HIT %:    94.0871  MISS %:    5.91287   MPKI: 11.2339
L1D RFO       ACCESS:    7884367  HIT:    7730058  MISS:     154309  HIT %:    98.0428  MISS %:    1.95715   MPKI: 3.08618
L1D PREFETCH  ACCESS:     941860  HIT:     129695  MISS:     812165  HIT %:    13.7701  MISS %:    86.2299   MPKI: 16.2433
AGUS PREFETCH L1 MISS: 0
L1D PREFETCH  REQUESTED:    2033898  ISSUED:    1972478  USEFUL:     480406  USELESS:     331817
L1D USEFUL LOAD PREFETCHES:     480406 PREFETCH ISSUED TO LOWER LEVEL:     819908  ACCURACY: 58.5927
L1D TIMELY PREFETCHES:     480406 LATE PREFETCHES: 6641 DROPPED PREFETCHES: 0
L1D PREFETCHES SAME FILL-ORIGIN LEVEL: 819908 DIFFERENT FILL-ORIGIN LEVEL: 0
L1D AVERAGE MISS LATENCY: 159.354 cycles
L1D RQ	ACCESS:   14077395	FORWARD:          0	MERGED:    4056258	TO_CACHE:    9570715
L1D WQ	ACCESS:    8476021	FORWARD:     450437	MERGED:     186052	TO_CACHE:    8289969
L1D PQ	ACCESS:     996186	FORWARD:          0	MERGED:      19879	TO_CACHE:     976292

L1D UNIQUE REGIONS ACCESSED: 0
L1D REGIONS CONFLICTS: 0
L1D Cross Page Prefetch Requests: 1671554
L1D Same Page Prefetch Requests: 88235
L1D ROI Sum of L1D PQ occupancy: 55167186
L1D PREFETCHES PUSHED FROM L2C: 0
L1I TOTAL     ACCESS:    9807974  HIT:    9806433  MISS:       1541  HIT %:    99.9843  MISS %:  0.0157117   MPKI: 0.03082
L1I LOAD      ACCESS:    9807974  HIT:    9806433  MISS:       1541  HIT %:    99.9843  MISS %:  0.0157117   MPKI: 0.03082
L1I PREFETCH  REQUESTED:          0  ISSUED:          0  USEFUL:          0  USELESS:          0
L1I USEFUL LOAD PREFETCHES:          0 PREFETCH ISSUED TO LOWER LEVEL:          0  ACCURACY: -nan
L1I TIMELY PREFETCHES:          0 LATE PREFETCHES: 0 DROPPED PREFETCHES: 0
L1I PREFETCHES SAME FILL-ORIGIN LEVEL: 0 DIFFERENT FILL-ORIGIN LEVEL: 0
L1I AVERAGE MISS LATENCY: 157.157 cycles
L1I RQ	ACCESS:   14765418	FORWARD:          0	MERGED:    4957144	TO_CACHE:    9808274

BTB TOTAL     ACCESS:   10008119  HIT:    9487971  MISS:     520148  HIT %:    94.8027  MISS %:    5.19726   MPKI: 10.403
BTB BRANCH_DIRECT_JUMP	ACCESS:     964405  HIT:     964243  MISS:        162
BTB BRANCH_INDIRECT	ACCESS:     140341  HIT:     116325  MISS:      24016
BTB BRANCH_CONDITIONAL	ACCESS:    5906166  HIT:    5905777  MISS:        389
BTB BRANCH_DIRECT_CALL	ACCESS:    1294152  HIT:    1293861  MISS:        291
BTB BRANCH_INDIRECT_CALL	ACCESS:     204449  HIT:     203146  MISS:       1303
BTB BRANCH_RETURN	ACCESS:    1498606  HIT:    1004619  MISS:     493987
BTB BRANCH_OTHER ACCESS:          0  HIT:          0  MISS:          0

L2C TOTAL     ACCESS:    2408096  HIT:    1052147  MISS:    1355949  HIT %:    43.6921  MISS %:    56.3079   MPKI: 27.119
L2C LOAD      ACCESS:     556573  HIT:     141423  MISS:     415150  HIT %:    25.4096  MISS %:    74.5904   MPKI: 8.303
L2C DATA LOAD MPKI: 8.27644
L2C INSTRUCTION LOAD MPKI: 0.02656
L2C RFO       ACCESS:     153206  HIT:      11923  MISS:     141283  HIT %:    7.78233  MISS %:    92.2177   MPKI: 2.82566
L2C PREFETCH  ACCESS:     819887  HIT:     148777  MISS:     671110  HIT %:     18.146  MISS %:     81.854   MPKI: 13.4222
AGUS PREFETCH L1 MISS: 0
L2C DATA PREFETCH MPKI: 13.4222
L2C INSTRUCTION PREFETCH MPKI: 0
L2C WRITEBACK ACCESS:     500392  HIT:     499021  MISS:       1371  HIT %:     99.726  MISS %:   0.273985   MPKI: 0.02742
L2C LOAD TRANSLATION ACCESS:     113900  HIT:      78123  MISS:      35777  HIT %:    68.5891  MISS %:    31.4109   MPKI: 0.71554
L2C TRANSLATION FROM L1D PREFETCHER ACCESS:     264138  HIT:     172880  MISS:      91258  HIT %:    65.4506  MISS %:    34.5494   MPKI: 1.82516
L2C PREFETCH  REQUESTED:          0  ISSUED:          0  USEFUL:     100340  USELESS:     661602
L2C USEFUL LOAD PREFETCHES:     100340 PREFETCH ISSUED TO LOWER LEVEL:     671110  ACCURACY: 14.9513
L2C TIMELY PREFETCHES:     100340 LATE PREFETCHES: 0 DROPPED PREFETCHES: 0
L2C PREFETCHES SAME FILL-ORIGIN LEVEL: 0 DIFFERENT FILL-ORIGIN LEVEL: 0
L2C AVERAGE MISS LATENCY: 170.451 cycles
L2C RQ	ACCESS:    1087839	FORWARD:          0	MERGED:          0	TO_CACHE:    1087817
L2C WQ	ACCESS:     500392	FORWARD:         43	MERGED:          0	TO_CACHE:     500392
L2C PQ	ACCESS:     819908	FORWARD:          0	MERGED:          0	TO_CACHE:     819887

L2C Instructions Evicting Data 1201
L2C Translations Evicting Data 114507
L2C Data Evicting Data 1109908
L2C Instructions Evicting Instructions 7
L2C Translations Evicting Instructions 114
L2C Data Evicting Instructions 1207
L2C Instructions Evicting Translations 120
L2C Translations Evicting Translations 12414
L2C Data Evicting Translations 115100
L2C Dense regions hint from L2: 0
PSCL5 TOTAL     ACCESS:     340905  HIT:     340905  MISS:          0  HIT %:        100  MISS %:          0   MPKI: 0
PSCL5 LOAD TRANSLATION ACCESS:     103214  HIT:     103214  MISS:          0  HIT %:        100  MISS %:          0   MPKI: 0
PSCL5 TRANSLATION FROM L1D PREFETCHER ACCESS:     237691  HIT:     237691  MISS:          0  HIT %:        100  MISS %:          0   MPKI: 0
PSCL5 PREFETCH  REQUESTED:          0  ISSUED:          0  USEFUL:          0  USELESS:          0
PSCL5 USEFUL LOAD PREFETCHES:          0 PREFETCH ISSUED TO LOWER LEVEL:          0  ACCURACY: -nan
PSCL5 TIMELY PREFETCHES:          0 LATE PREFETCHES: 0 DROPPED PREFETCHES: 0
PSCL5 PREFETCHES SAME FILL-ORIGIN LEVEL: 0 DIFFERENT FILL-ORIGIN LEVEL: 0

PSCL4 TOTAL     ACCESS:     340905  HIT:     340905  MISS:          0  HIT %:        100  MISS %:          0   MPKI: 0
PSCL4 LOAD TRANSLATION ACCESS:     103214  HIT:     103214  MISS:          0  HIT %:        100  MISS %:          0   MPKI: 0
PSCL4 TRANSLATION FROM L1D PREFETCHER ACCESS:     237691  HIT:     237691  MISS:          0  HIT %:        100  MISS %:          0   MPKI: 0
PSCL4 PREFETCH  REQUESTED:          0  ISSUED:          0  USEFUL:          0  USELESS:          0
PSCL4 USEFUL LOAD PREFETCHES:          0 PREFETCH ISSUED TO LOWER LEVEL:          0  ACCURACY: -nan
PSCL4 TIMELY PREFETCHES:          0 LATE PREFETCHES: 0 DROPPED PREFETCHES: 0
PSCL4 PREFETCHES SAME FILL-ORIGIN LEVEL: 0 DIFFERENT FILL-ORIGIN LEVEL: 0

PSCL3 TOTAL     ACCESS:     340905  HIT:     340905  MISS:          0  HIT %:        100  MISS %:          0   MPKI: 0
PSCL3 LOAD TRANSLATION ACCESS:     103214  HIT:     103214  MISS:          0  HIT %:        100  MISS %:          0   MPKI: 0
PSCL3 TRANSLATION FROM L1D PREFETCHER ACCESS:     237691  HIT:     237691  MISS:          0  HIT %:        100  MISS %:          0   MPKI: 0
PSCL3 PREFETCH  REQUESTED:          0  ISSUED:          0  USEFUL:          0  USELESS:          0
PSCL3 USEFUL LOAD PREFETCHES:          0 PREFETCH ISSUED TO LOWER LEVEL:          0  ACCURACY: -nan
PSCL3 TIMELY PREFETCHES:          0 LATE PREFETCHES: 0 DROPPED PREFETCHES: 0
PSCL3 PREFETCHES SAME FILL-ORIGIN LEVEL: 0 DIFFERENT FILL-ORIGIN LEVEL: 0

PSCL2 TOTAL     ACCESS:     340905  HIT:     303771  MISS:      37134  HIT %:    89.1072  MISS %:    10.8928   MPKI: 0.74268
PSCL2 LOAD TRANSLATION ACCESS:     129661  HIT:      92527  MISS:      37134  HIT %:    71.3607  MISS %:    28.6393   MPKI: 0.74268
PSCL2 TRANSLATION FROM L1D PREFETCHER ACCESS:     211244  HIT:     211244  MISS:          0  HIT %:        100  MISS %:          0   MPKI: 0
PSCL2 PREFETCH  REQUESTED:          0  ISSUED:          0  USEFUL:          0  USELESS:          0
PSCL2 USEFUL LOAD PREFETCHES:          0 PREFETCH ISSUED TO LOWER LEVEL:          0  ACCURACY: -nan
PSCL2 TIMELY PREFETCHES:          0 LATE PREFETCHES: 0 DROPPED PREFETCHES: 0
PSCL2 PREFETCHES SAME FILL-ORIGIN LEVEL: 0 DIFFERENT FILL-ORIGIN LEVEL: 0

LLC TOTAL     ACCESS:    1798162  HIT:     795087  MISS:    1003075  HIT %:    44.2167  MISS %:    55.7833   MPKI: 20.0615
LLC LOAD      ACCESS:     415149  HIT:      94001  MISS:     321148  HIT %:    22.6427  MISS %:    77.3573   MPKI: 6.42296
LLC RFO       ACCESS:     141283  HIT:      20642  MISS:     120641  HIT %:    14.6104  MISS %:    85.3896   MPKI: 2.41282
LLC PREFETCH  ACCESS:     671107  HIT:     146917  MISS:     524190  HIT %:    21.8917  MISS %:    78.1083   MPKI: 10.4838
AGUS PREFETCH L1 MISS: 0
LLC WRITEBACK ACCESS:     443588  HIT:     442816  MISS:        772  HIT %:     99.826  MISS %:   0.174035   MPKI: 0.01544
LLC LOAD TRANSLATION ACCESS:      35777  HIT:      28011  MISS:       7766  HIT %:    78.2933  MISS %:    21.7067   MPKI: 0.15532
LLC TRANSLATION FROM L1D PREFETCHER ACCESS:      91258  HIT:      62700  MISS:      28558  HIT %:    68.7063  MISS %:    31.2937   MPKI: 0.57116
LLC PREFETCH  REQUESTED:          0  ISSUED:          0  USEFUL:      42409  USELESS:     508400
LLC USEFUL LOAD PREFETCHES:      42409 PREFETCH ISSUED TO LOWER LEVEL:     524190  ACCURACY: 8.09039
LLC TIMELY PREFETCHES:      42409 LATE PREFETCHES: 0 DROPPED PREFETCHES: 0
LLC PREFETCHES SAME FILL-ORIGIN LEVEL: 0 DIFFERENT FILL-ORIGIN LEVEL: 0
LLC AVERAGE MISS LATENCY: 189.864 cycles
LLC RQ	ACCESS:     683468	FORWARD:          0	MERGED:          0	TO_CACHE:     683467
LLC WQ	ACCESS:     443588	FORWARD:          4	MERGED:          0	TO_CACHE:     443588
LLC PQ	ACCESS:     671110	FORWARD:          0	MERGED:          0	TO_CACHE:     671107

LLC Dense regions hint to LLC: 0

RAW hits: 798037
Loads Generated: 14875432
Loads sent to L1D: 14077395
Stores Generated: 8476008
Stores sent to L1D: 8476021
Major fault: 0 Minor fault: 33441
Allocated PAGES: 33441
Prefetcher final stats
Training Unit Size: 1512
Addr table size: 385756 396095


Triggers: 16282309
No Prediction: 15407148 94.6251
Stream end: 764908
No translation: 3124135028 19187.3
Predictions: 1759789 10.808


Stream divergence: 1396494 8.57676
Stream divergence -- new stream: 0

DRAM Statistics
 CHANNEL 0
 RQ ROW_BUFFER_HIT:     114440  ROW_BUFFER_MISS:     887850
 DBUS_CONGESTED:        185
 WQ ROW_BUFFER_HIT:      55108  ROW_BUFFER_MISS:     314366  FULL:          0

 AVG_CONGESTED_CYCLE: 5
 All warmup complete: 2
Channel 0 Bank busy for read cycles: 0
Channel 0 Bank busy for write cycles: 0
Channel 0
Rank 0
0banks busy for read cycles: 70227425
0banks busy for write cycles: 112900
1banks busy for read cycles: 35271237
1banks busy for write cycles: 14542345
2banks busy for read cycles: 16775510
2banks busy for write cycles: 7318267
3banks busy for read cycles: 8303277
3banks busy for write cycles: 4270593
4banks busy for read cycles: 4700520
4banks busy for write cycles: 2619323
5banks busy for read cycles: 2780217
5banks busy for write cycles: 1625104
6banks busy for read cycles: 1390771
6banks busy for write cycles: 948773
7banks busy for read cycles: 456083
7banks busy for write cycles: 478787
8banks busy for read cycles: 116088
8banks busy for write cycles: 182527

CPU 0 Branch Prediction Accuracy: 94.0755% MPKI: 14.2353 Average ROB Occupancy at Mispredict: 25.5769
Branch types
NOT_BRANCH: 37985796 75.9716%
BRANCH_DIRECT_JUMP: 964405 1.92881%
BRANCH_INDIRECT: 140341 0.280682%
BRANCH_CONDITIONAL: 7911981 15.824%
BRANCH_DIRECT_CALL: 1294152 2.5883%
BRANCH_INDIRECT_CALL: 204449 0.408898%
BRANCH_RETURN: 1498606 2.99721%
BRANCH_OTHER: 0 0%

DRAM PAGES: 1048576
Allocated PAGES: 33441
