
*** ChampSim Multicore Out-of-Order Simulator ***

Warmup Instructions: 50000000
Simulation Instructions: 50000000
Number of CPUs: 1
LLC sets: 2048
LLC ways: 16
Off-chip DRAM Size: 4096 MB Channels: 1 Width: 64-bit Data Rate: 6400 MT/s
CPU 0 runs traces/SPEC-CPU2017/471.omnetpp-188B.champsimtrace.xz
.xz
CPU 0 Bimodal branch predictor
BTB has LRU replacement policy
ITLB has LRU replacement policy
DTLB has LRU replacement policy
STLB has LRU replacement policy
L1I has LRU replacement policy
Ideal ISB Prefetching
L1D has LRU replacement policy
L2C has LRU replacement policy
LLC has LRU replacement policy
Heartbeat CPU 0 instructions: 10000001 cycles: 3322827 heartbeat IPC: 3.00949 cumulative IPC: 3.00949 (Simulation time: 0 hr 2 min 36 sec) 
Heartbeat CPU 0 instructions: 20000000 cycles: 6602509 heartbeat IPC: 3.04908 cumulative IPC: 3.02915 (Simulation time: 0 hr 5 min 45 sec) 
Heartbeat CPU 0 instructions: 30000000 cycles: 9915946 heartbeat IPC: 3.01801 cumulative IPC: 3.02543 (Simulation time: 0 hr 8 min 37 sec) 
Heartbeat CPU 0 instructions: 40000000 cycles: 13216857 heartbeat IPC: 3.02947 cumulative IPC: 3.02644 (Simulation time: 0 hr 11 min 47 sec) 
Heartbeat CPU 0 instructions: 50000003 cycles: 16501853 heartbeat IPC: 3.04414 cumulative IPC: 3.02996 (Simulation time: 0 hr 14 min 46 sec) 

Warmup complete CPU 0 instructions: 50000003 cycles: 16501853 (Simulation time: 0 hr 14 min 46 sec) 

Heartbeat CPU 0 instructions: 60000000 cycles: 49855297 heartbeat IPC: 0.299819 cumulative IPC: 0.299819 (Simulation time: 0 hr 18 min 27 sec) 
Heartbeat CPU 0 instructions: 70000001 cycles: 81348375 heartbeat IPC: 0.31753 cumulative IPC: 0.308421 (Simulation time: 0 hr 22 min 12 sec) 
Heartbeat CPU 0 instructions: 80000000 cycles: 112144617 heartbeat IPC: 0.324715 cumulative IPC: 0.313667 (Simulation time: 0 hr 25 min 47 sec) 
Heartbeat CPU 0 instructions: 90000003 cycles: 142775130 heartbeat IPC: 0.326472 cumulative IPC: 0.316773 (Simulation time: 0 hr 29 min 28 sec) 
Heartbeat CPU 0 instructions: 100000000 cycles: 173910889 heartbeat IPC: 0.321174 cumulative IPC: 0.317644 (Simulation time: 0 hr 33 min 26 sec) 
Finished CPU 0 instructions: 50000000 cycles: 157409045 cumulative IPC: 0.317644 (Simulation time: 0 hr 33 min 26 sec) 

ChampSim completed all CPUs

Region of Interest Statistics

CPU 0 cumulative IPC: 0.317644 instructions: 50000000 cycles: 157409045
ITLB TOTAL     ACCESS:    8712424  HIT:    8695221  MISS:      17203  HIT %:    99.8025  MISS %:   0.197454   MPKI: 0.34406
ITLB LOAD TRANSLATION ACCESS:    8712424  HIT:    8695221  MISS:      17203  HIT %:    99.8025  MISS %:   0.197454   MPKI: 0.34406
ITLB PREFETCH  REQUESTED:          0  ISSUED:          0  USEFUL:          0  USELESS:          0
ITLB USEFUL LOAD PREFETCHES:          0 PREFETCH ISSUED TO LOWER LEVEL:          0  ACCURACY: -nan
ITLB TIMELY PREFETCHES:          0 LATE PREFETCHES: 0 DROPPED PREFETCHES: 0
ITLB PREFETCHES SAME FILL-ORIGIN LEVEL: 0 DIFFERENT FILL-ORIGIN LEVEL: 0
ITLB AVERAGE MISS LATENCY: 12.4783 cycles
ITLB RQ	ACCESS:    9799367	FORWARD:          0	MERGED:    1079325	TO_CACHE:    8720042

DTLB TOTAL     ACCESS:   14725720  HIT:   13767992  MISS:     957728  HIT %:    93.4962  MISS %:    6.50378   MPKI: 19.1546
DTLB LOAD TRANSLATION ACCESS:   14725720  HIT:   13767992  MISS:     957728  HIT %:    93.4962  MISS %:    6.50378   MPKI: 19.1546
DTLB PREFETCH  REQUESTED:          0  ISSUED:          0  USEFUL:          0  USELESS:          0
DTLB USEFUL LOAD PREFETCHES:          0 PREFETCH ISSUED TO LOWER LEVEL:          0  ACCURACY: -nan
DTLB TIMELY PREFETCHES:          0 LATE PREFETCHES: 0 DROPPED PREFETCHES: 0
DTLB PREFETCHES SAME FILL-ORIGIN LEVEL: 0 DIFFERENT FILL-ORIGIN LEVEL: 0
DTLB AVERAGE MISS LATENCY: 15.3428 cycles
DTLB RQ	ACCESS:   17875084	FORWARD:          0	MERGED:    3104921	TO_CACHE:   14770163

STLB TOTAL     ACCESS:   11408465  HIT:   10992353  MISS:     416112  HIT %:    96.3526  MISS %:     3.6474   MPKI: 8.32224
STLB LOAD TRANSLATION ACCESS:     974931  HIT:     882973  MISS:      91958  HIT %:    90.5677  MISS %:    9.43226   MPKI: 1.83916
STLB TRANSLATION FROM L1D PREFETCHER ACCESS:   10433534  HIT:   10109380  MISS:     324154  HIT %:    96.8932  MISS %:    3.10685   MPKI: 6.48308
STLB PREFETCH  REQUESTED:          0  ISSUED:          0  USEFUL:     252992  USELESS:      70984
STLB USEFUL LOAD PREFETCHES:     252992 PREFETCH ISSUED TO LOWER LEVEL:          0  ACCURACY: inf
STLB TIMELY PREFETCHES:     252992 LATE PREFETCHES: 390 DROPPED PREFETCHES: 0
STLB PREFETCHES SAME FILL-ORIGIN LEVEL: 0 DIFFERENT FILL-ORIGIN LEVEL: 0
STLB AVERAGE MISS LATENCY: 93.6783 cycles
STLB RQ	ACCESS:   12560963	FORWARD:          0	MERGED:    1150909	TO_CACHE:   11410054

STLB Hit, L1D data hit: 0
STLB Hit, L2C data hit: 0
STLB Hit, LLC data hit: 0
STLB Hit, LLC data miss: 0
STLB STLB hints to L2: 0
L1D TOTAL     ACCESS:   28881728  HIT:   26904340  MISS:    1977388  HIT %:    93.1535  MISS %:     6.8465   MPKI: 39.5478
L1D LOAD      ACCESS:    9529829  HIT:    9026500  MISS:     503329  HIT %:    94.7184  MISS %:    5.28162   MPKI: 10.0666
L1D RFO       ACCESS:    7982214  HIT:    7841658  MISS:     140556  HIT %:    98.2391  MISS %:    1.76086   MPKI: 2.81112
L1D PREFETCH  ACCESS:   11369685  HIT:   10036182  MISS:    1333503  HIT %:    88.2714  MISS %:    11.7286   MPKI: 26.6701
AGUS PREFETCH L1 MISS: 0
L1D PREFETCH  REQUESTED:   28490200  ISSUED:   23342943  USEFUL:     618132  USELESS:     715500
L1D USEFUL LOAD PREFETCHES:     618132 PREFETCH ISSUED TO LOWER LEVEL:    1337897  ACCURACY: 46.2018
L1D TIMELY PREFETCHES:     618132 LATE PREFETCHES: 4044 DROPPED PREFETCHES: 0
L1D PREFETCHES SAME FILL-ORIGIN LEVEL: 1337897 DIFFERENT FILL-ORIGIN LEVEL: 0
L1D AVERAGE MISS LATENCY: 131.174 cycles
L1D RQ	ACCESS:   14106639	FORWARD:          0	MERGED:    4060909	TO_CACHE:    9582872
L1D WQ	ACCESS:    8476021	FORWARD:     463100	MERGED:     183809	TO_CACHE:    8292212
L1D PQ	ACCESS:   11756911	FORWARD:          0	MERGED:     170637	TO_CACHE:   11586032

L1D UNIQUE REGIONS ACCESSED: 0
L1D REGIONS CONFLICTS: 0
L1D Cross Page Prefetch Requests: 18681010
L1D Same Page Prefetch Requests: 1346470
L1D ROI Sum of L1D PQ occupancy: 249496788
L1D PREFETCHES PUSHED FROM L2C: 0
L1I TOTAL     ACCESS:    9799066  HIT:    9797525  MISS:       1541  HIT %:    99.9843  MISS %:   0.015726   MPKI: 0.03082
L1I LOAD      ACCESS:    9799066  HIT:    9797525  MISS:       1541  HIT %:    99.9843  MISS %:   0.015726   MPKI: 0.03082
L1I PREFETCH  REQUESTED:          0  ISSUED:          0  USEFUL:          0  USELESS:          0
L1I USEFUL LOAD PREFETCHES:          0 PREFETCH ISSUED TO LOWER LEVEL:          0  ACCURACY: -nan
L1I TIMELY PREFETCHES:          0 LATE PREFETCHES: 0 DROPPED PREFETCHES: 0
L1I PREFETCHES SAME FILL-ORIGIN LEVEL: 0 DIFFERENT FILL-ORIGIN LEVEL: 0
L1I AVERAGE MISS LATENCY: 159.095 cycles
L1I RQ	ACCESS:   14748173	FORWARD:          0	MERGED:    4948806	TO_CACHE:    9799367

BTB TOTAL     ACCESS:   10008119  HIT:    9487971  MISS:     520148  HIT %:    94.8027  MISS %:    5.19726   MPKI: 10.403
BTB BRANCH_DIRECT_JUMP	ACCESS:     964405  HIT:     964243  MISS:        162
BTB BRANCH_INDIRECT	ACCESS:     140341  HIT:     116325  MISS:      24016
BTB BRANCH_CONDITIONAL	ACCESS:    5906166  HIT:    5905777  MISS:        389
BTB BRANCH_DIRECT_CALL	ACCESS:    1294152  HIT:    1293861  MISS:        291
BTB BRANCH_INDIRECT_CALL	ACCESS:     204449  HIT:     203146  MISS:       1303
BTB BRANCH_RETURN	ACCESS:    1498606  HIT:    1004619  MISS:     493987
BTB BRANCH_OTHER ACCESS:          0  HIT:          0  MISS:          0

L2C TOTAL     ACCESS:    2959440  HIT:    1490577  MISS:    1468863  HIT %:    50.3669  MISS %:    49.6331   MPKI: 29.3773
L2C LOAD      ACCESS:     500755  HIT:     204283  MISS:     296472  HIT %:     40.795  MISS %:     59.205   MPKI: 5.92944
L2C DATA LOAD MPKI: 5.90222
L2C INSTRUCTION LOAD MPKI: 0.02722
L2C RFO       ACCESS:     140194  HIT:      20338  MISS:     119856  HIT %:     14.507  MISS %:     85.493   MPKI: 2.39712
L2C PREFETCH  ACCESS:    1337845  HIT:     433618  MISS:     904227  HIT %:    32.4117  MISS %:    67.5883   MPKI: 18.0845
AGUS PREFETCH L1 MISS: 0
L2C DATA PREFETCH MPKI: 18.0845
L2C INSTRUCTION PREFETCH MPKI: 0
L2C WRITEBACK ACCESS:     523636  HIT:     521687  MISS:       1949  HIT %:    99.6278  MISS %:   0.372205   MPKI: 0.03898
L2C LOAD TRANSLATION ACCESS:      99608  HIT:      71634  MISS:      27974  HIT %:    71.9159  MISS %:    28.0841   MPKI: 0.55948
L2C TRANSLATION FROM L1D PREFETCHER ACCESS:     357402  HIT:     239017  MISS:     118385  HIT %:    66.8762  MISS %:    33.1238   MPKI: 2.3677
L2C PREFETCH  REQUESTED:          0  ISSUED:          0  USEFUL:     139329  USELESS:     883328
L2C USEFUL LOAD PREFETCHES:     139329 PREFETCH ISSUED TO LOWER LEVEL:     904227  ACCURACY: 15.4086
L2C TIMELY PREFETCHES:     139329 LATE PREFETCHES: 0 DROPPED PREFETCHES: 0
L2C PREFETCHES SAME FILL-ORIGIN LEVEL: 0 DIFFERENT FILL-ORIGIN LEVEL: 0
L2C AVERAGE MISS LATENCY: 163.654 cycles
L2C RQ	ACCESS:    1098042	FORWARD:          0	MERGED:          0	TO_CACHE:    1097959
L2C WQ	ACCESS:     523636	FORWARD:        135	MERGED:          0	TO_CACHE:     523636
L2C PQ	ACCESS:    1337897	FORWARD:          0	MERGED:          0	TO_CACHE:    1337845

L2C Instructions Evicting Data 1230
L2C Translations Evicting Data 131182
L2C Data Evicting Data 1186478
L2C Instructions Evicting Instructions 1
L2C Translations Evicting Instructions 129
L2C Data Evicting Instructions 1231
L2C Instructions Evicting Translations 130
L2C Translations Evicting Translations 15048
L2C Data Evicting Translations 131485
L2C Dense regions hint from L2: 0
PSCL5 TOTAL     ACCESS:     416112  HIT:     416112  MISS:          0  HIT %:        100  MISS %:          0   MPKI: 0
PSCL5 LOAD TRANSLATION ACCESS:      91568  HIT:      91568  MISS:          0  HIT %:        100  MISS %:          0   MPKI: 0
PSCL5 TRANSLATION FROM L1D PREFETCHER ACCESS:     324544  HIT:     324544  MISS:          0  HIT %:        100  MISS %:          0   MPKI: 0
PSCL5 PREFETCH  REQUESTED:          0  ISSUED:          0  USEFUL:          0  USELESS:          0
PSCL5 USEFUL LOAD PREFETCHES:          0 PREFETCH ISSUED TO LOWER LEVEL:          0  ACCURACY: -nan
PSCL5 TIMELY PREFETCHES:          0 LATE PREFETCHES: 0 DROPPED PREFETCHES: 0
PSCL5 PREFETCHES SAME FILL-ORIGIN LEVEL: 0 DIFFERENT FILL-ORIGIN LEVEL: 0

PSCL4 TOTAL     ACCESS:     416112  HIT:     416112  MISS:          0  HIT %:        100  MISS %:          0   MPKI: 0
PSCL4 LOAD TRANSLATION ACCESS:      91568  HIT:      91568  MISS:          0  HIT %:        100  MISS %:          0   MPKI: 0
PSCL4 TRANSLATION FROM L1D PREFETCHER ACCESS:     324544  HIT:     324544  MISS:          0  HIT %:        100  MISS %:          0   MPKI: 0
PSCL4 PREFETCH  REQUESTED:          0  ISSUED:          0  USEFUL:          0  USELESS:          0
PSCL4 USEFUL LOAD PREFETCHES:          0 PREFETCH ISSUED TO LOWER LEVEL:          0  ACCURACY: -nan
PSCL4 TIMELY PREFETCHES:          0 LATE PREFETCHES: 0 DROPPED PREFETCHES: 0
PSCL4 PREFETCHES SAME FILL-ORIGIN LEVEL: 0 DIFFERENT FILL-ORIGIN LEVEL: 0

PSCL3 TOTAL     ACCESS:     416112  HIT:     416112  MISS:          0  HIT %:        100  MISS %:          0   MPKI: 0
PSCL3 LOAD TRANSLATION ACCESS:      91568  HIT:      91568  MISS:          0  HIT %:        100  MISS %:          0   MPKI: 0
PSCL3 TRANSLATION FROM L1D PREFETCHER ACCESS:     324544  HIT:     324544  MISS:          0  HIT %:        100  MISS %:          0   MPKI: 0
PSCL3 PREFETCH  REQUESTED:          0  ISSUED:          0  USEFUL:          0  USELESS:          0
PSCL3 USEFUL LOAD PREFETCHES:          0 PREFETCH ISSUED TO LOWER LEVEL:          0  ACCURACY: -nan
PSCL3 TIMELY PREFETCHES:          0 LATE PREFETCHES: 0 DROPPED PREFETCHES: 0
PSCL3 PREFETCHES SAME FILL-ORIGIN LEVEL: 0 DIFFERENT FILL-ORIGIN LEVEL: 0

PSCL2 TOTAL     ACCESS:     416112  HIT:     375213  MISS:      40899  HIT %:    90.1712  MISS %:    9.82884   MPKI: 0.81798
PSCL2 LOAD TRANSLATION ACCESS:     124426  HIT:      83527  MISS:      40899  HIT %:    67.1299  MISS %:    32.8701   MPKI: 0.81798
PSCL2 TRANSLATION FROM L1D PREFETCHER ACCESS:     291686  HIT:     291686  MISS:          0  HIT %:        100  MISS %:          0   MPKI: 0
PSCL2 PREFETCH  REQUESTED:          0  ISSUED:          0  USEFUL:          0  USELESS:          0
PSCL2 USEFUL LOAD PREFETCHES:          0 PREFETCH ISSUED TO LOWER LEVEL:          0  ACCURACY: -nan
PSCL2 TIMELY PREFETCHES:          0 LATE PREFETCHES: 0 DROPPED PREFETCHES: 0
PSCL2 PREFETCHES SAME FILL-ORIGIN LEVEL: 0 DIFFERENT FILL-ORIGIN LEVEL: 0

LLC TOTAL     ACCESS:    1913512  HIT:     873416  MISS:    1040096  HIT %:    45.6447  MISS %:    54.3553   MPKI: 20.8019
LLC LOAD      ACCESS:     296471  HIT:      79446  MISS:     217025  HIT %:    26.7972  MISS %:    73.2028   MPKI: 4.3405
LLC RFO       ACCESS:     119856  HIT:      16873  MISS:     102983  HIT %:    14.0777  MISS %:    85.9223   MPKI: 2.05966
LLC PREFETCH  ACCESS:     904226  HIT:     219003  MISS:     685223  HIT %:    24.2199  MISS %:    75.7801   MPKI: 13.7045
AGUS PREFETCH L1 MISS: 0
LLC WRITEBACK ACCESS:     446600  HIT:     445571  MISS:       1029  HIT %:    99.7696  MISS %:   0.230408   MPKI: 0.02058
LLC LOAD TRANSLATION ACCESS:      27974  HIT:      22714  MISS:       5260  HIT %:    81.1968  MISS %:    18.8032   MPKI: 0.1052
LLC TRANSLATION FROM L1D PREFETCHER ACCESS:     118385  HIT:      89809  MISS:      28576  HIT %:    75.8618  MISS %:    24.1382   MPKI: 0.57152
LLC PREFETCH  REQUESTED:          0  ISSUED:          0  USEFUL:      40955  USELESS:     670800
LLC USEFUL LOAD PREFETCHES:      40955 PREFETCH ISSUED TO LOWER LEVEL:     685223  ACCURACY: 5.97689
LLC TIMELY PREFETCHES:      40955 LATE PREFETCHES: 0 DROPPED PREFETCHES: 0
LLC PREFETCHES SAME FILL-ORIGIN LEVEL: 0 DIFFERENT FILL-ORIGIN LEVEL: 0
LLC AVERAGE MISS LATENCY: 188.766 cycles
LLC RQ	ACCESS:     562687	FORWARD:          0	MERGED:          0	TO_CACHE:     562686
LLC WQ	ACCESS:     446600	FORWARD:          2	MERGED:          0	TO_CACHE:     446600
LLC PQ	ACCESS:     904227	FORWARD:          0	MERGED:          0	TO_CACHE:     904226

LLC Dense regions hint to LLC: 0

RAW hits: 768796
Loads Generated: 14875435
Loads sent to L1D: 14106639
Stores Generated: 8476009
Stores sent to L1D: 8476021
Major fault: 0 Minor fault: 33441
Allocated PAGES: 33441
Prefetcher final stats
Training Unit Size: 551
Addr table size: 388347 388399


Triggers: 16295702
Structural address exists: 9425888 57.8428
No Prediction: 6869814 42.1572
Prefetches issued: 20027480 122.9
Useful Prefetches: 618132
Useless Prefetches: 715500
Stream end: 6377917
No translation: 2121774780
%Stream divergence: 224012 1.37467
Stream divergence -- new stream: 0

DRAM Statistics
 CHANNEL 0
 RQ ROW_BUFFER_HIT:      87325  ROW_BUFFER_MISS:     951720
 DBUS_CONGESTED:        199
 WQ ROW_BUFFER_HIT:      56265  ROW_BUFFER_MISS:     315854  FULL:          0

 AVG_CONGESTED_CYCLE: 4
 All warmup complete: 2
Channel 0 Bank busy for read cycles: 0
Channel 0 Bank busy for write cycles: 0
Channel 0
Rank 0
0banks busy for read cycles: 53512919
0banks busy for write cycles: 95867
1banks busy for read cycles: 34829004
1banks busy for write cycles: 12287945
2banks busy for read cycles: 19076263
2banks busy for write cycles: 6769125
3banks busy for read cycles: 10375416
3banks busy for write cycles: 4277817
4banks busy for read cycles: 5213709
4banks busy for write cycles: 2801622
5banks busy for read cycles: 2517971
5banks busy for write cycles: 1869260
6banks busy for read cycles: 1084609
6banks busy for write cycles: 1168134
7banks busy for read cycles: 348987
7banks busy for write cycles: 715236
8banks busy for read cycles: 78843
8banks busy for write cycles: 386319

CPU 0 Branch Prediction Accuracy: 94.0755% MPKI: 14.2353 Average ROB Occupancy at Mispredict: 25.0762
Branch types
NOT_BRANCH: 37985796 75.9716%
BRANCH_DIRECT_JUMP: 964405 1.92881%
BRANCH_INDIRECT: 140341 0.280682%
BRANCH_CONDITIONAL: 7911981 15.824%
BRANCH_DIRECT_CALL: 1294152 2.5883%
BRANCH_INDIRECT_CALL: 204449 0.408898%
BRANCH_RETURN: 1498606 2.99721%
BRANCH_OTHER: 0 0%

DRAM PAGES: 1048576
Allocated PAGES: 33441
