
*** ChampSim Multicore Out-of-Order Simulator ***

Warmup Instructions: 50000000
Simulation Instructions: 50000000
Number of CPUs: 1
LLC sets: 2048
LLC ways: 16
Off-chip DRAM Size: 4096 MB Channels: 1 Width: 64-bit Data Rate: 6400 MT/s
CPU 0 runs traces/SPEC-CPU2017/471.omnetpp-188B.champsimtrace.xz
.xz
CPU 0 Bimodal branch predictor
BTB has LRU replacement policy
ITLB has LRU replacement policy
DTLB has LRU replacement policy
STLB has LRU replacement policy
L1I has LRU replacement policy
Ideal ISB Prefetching
L1D has LRU replacement policy
L2C has LRU replacement policy
LLC has LRU replacement policy
Heartbeat CPU 0 instructions: 10000001 cycles: 3270314 heartbeat IPC: 3.05781 cumulative IPC: 3.05781 (Simulation time: 0 hr 0 min 51 sec) 
Heartbeat CPU 0 instructions: 20000000 cycles: 6497998 heartbeat IPC: 3.0982 cumulative IPC: 3.07787 (Simulation time: 0 hr 1 min 45 sec) 
Heartbeat CPU 0 instructions: 30000000 cycles: 9735274 heartbeat IPC: 3.08902 cumulative IPC: 3.08158 (Simulation time: 0 hr 2 min 44 sec) 
Heartbeat CPU 0 instructions: 40000000 cycles: 12968290 heartbeat IPC: 3.09309 cumulative IPC: 3.08445 (Simulation time: 0 hr 3 min 42 sec) 
Heartbeat CPU 0 instructions: 50000003 cycles: 16183865 heartbeat IPC: 3.10986 cumulative IPC: 3.0895 (Simulation time: 0 hr 4 min 41 sec) 

Warmup complete CPU 0 instructions: 50000003 cycles: 16183865 (Simulation time: 0 hr 4 min 41 sec) 

Heartbeat CPU 0 instructions: 60000000 cycles: 51805583 heartbeat IPC: 0.280728 cumulative IPC: 0.280728 (Simulation time: 0 hr 5 min 55 sec) 
Heartbeat CPU 0 instructions: 70000001 cycles: 85748100 heartbeat IPC: 0.294616 cumulative IPC: 0.287504 (Simulation time: 0 hr 7 min 11 sec) 
Heartbeat CPU 0 instructions: 80000000 cycles: 120023552 heartbeat IPC: 0.291754 cumulative IPC: 0.288907 (Simulation time: 0 hr 8 min 30 sec) 
Heartbeat CPU 0 instructions: 90000003 cycles: 154026528 heartbeat IPC: 0.294092 cumulative IPC: 0.290186 (Simulation time: 0 hr 9 min 47 sec) 
Heartbeat CPU 0 instructions: 100000000 cycles: 188277060 heartbeat IPC: 0.291966 cumulative IPC: 0.29054 (Simulation time: 0 hr 11 min 6 sec) 
Finished CPU 0 instructions: 50000000 cycles: 172093204 cumulative IPC: 0.29054 (Simulation time: 0 hr 11 min 6 sec) 

ChampSim completed all CPUs

Region of Interest Statistics

CPU 0 cumulative IPC: 0.29054 instructions: 50000000 cycles: 172093204
ITLB TOTAL     ACCESS:    8718574  HIT:    8701371  MISS:      17203  HIT %:    99.8027  MISS %:   0.197314   MPKI: 0.34406
ITLB LOAD TRANSLATION ACCESS:    8718574  HIT:    8701371  MISS:      17203  HIT %:    99.8027  MISS %:   0.197314   MPKI: 0.34406
ITLB PREFETCH  REQUESTED:          0  ISSUED:          0  USEFUL:          0  USELESS:          0
ITLB USEFUL LOAD PREFETCHES:          0 PREFETCH ISSUED TO LOWER LEVEL:          0  ACCURACY: -nan
ITLB TIMELY PREFETCHES:          0 LATE PREFETCHES: 0 DROPPED PREFETCHES: 0
ITLB PREFETCHES SAME FILL-ORIGIN LEVEL: 0 DIFFERENT FILL-ORIGIN LEVEL: 0
ITLB AVERAGE MISS LATENCY: 11.9381 cycles
ITLB RQ	ACCESS:    9808297	FORWARD:          0	MERGED:    1082106	TO_CACHE:    8726191

DTLB TOTAL     ACCESS:   14698387  HIT:   13740692  MISS:     957695  HIT %:    93.4844  MISS %:    6.51565   MPKI: 19.1539
DTLB LOAD TRANSLATION ACCESS:   14698387  HIT:   13740692  MISS:     957695  HIT %:    93.4844  MISS %:    6.51565   MPKI: 19.1539
DTLB PREFETCH  REQUESTED:          0  ISSUED:          0  USEFUL:          0  USELESS:          0
DTLB USEFUL LOAD PREFETCHES:          0 PREFETCH ISSUED TO LOWER LEVEL:          0  ACCURACY: -nan
DTLB TIMELY PREFETCHES:          0 LATE PREFETCHES: 0 DROPPED PREFETCHES: 0
DTLB PREFETCHES SAME FILL-ORIGIN LEVEL: 0 DIFFERENT FILL-ORIGIN LEVEL: 0
DTLB AVERAGE MISS LATENCY: 16.4684 cycles
DTLB RQ	ACCESS:   17861112	FORWARD:          0	MERGED:    3117831	TO_CACHE:   14743281

STLB TOTAL     ACCESS:    1830319  HIT:    1488676  MISS:     341643  HIT %:    81.3342  MISS %:    18.6658   MPKI: 6.83286
STLB LOAD TRANSLATION ACCESS:     974898  HIT:     870641  MISS:     104257  HIT %:    89.3059  MISS %:    10.6941   MPKI: 2.08514
STLB TRANSLATION FROM L1D PREFETCHER ACCESS:     855421  HIT:     618035  MISS:     237386  HIT %:    72.2492  MISS %:    27.7508   MPKI: 4.74772
STLB PREFETCH  REQUESTED:          0  ISSUED:          0  USEFUL:     155575  USELESS:      81686
STLB USEFUL LOAD PREFETCHES:     155575 PREFETCH ISSUED TO LOWER LEVEL:          0  ACCURACY: inf
STLB TIMELY PREFETCHES:     155575 LATE PREFETCHES: 925 DROPPED PREFETCHES: 0
STLB PREFETCHES SAME FILL-ORIGIN LEVEL: 0 DIFFERENT FILL-ORIGIN LEVEL: 0
STLB AVERAGE MISS LATENCY: 106.457 cycles
STLB RQ	ACCESS:    1952066	FORWARD:          0	MERGED:     118528	TO_CACHE:    1833538

STLB Hit, L1D data hit: 0
STLB Hit, L2C data hit: 0
STLB Hit, LLC data hit: 0
STLB Hit, LLC data miss: 0
STLB STLB hints to L2: 0
L1D TOTAL     ACCESS:   18327233  HIT:   16797893  MISS:    1529340  HIT %:    91.6554  MISS %:    8.34463   MPKI: 30.5868
L1D LOAD      ACCESS:    9499907  HIT:    8938192  MISS:     561715  HIT %:    94.0872  MISS %:    5.91285   MPKI: 11.2343
L1D RFO       ACCESS:    7884538  HIT:    7730125  MISS:     154413  HIT %:    98.0416  MISS %:    1.95843   MPKI: 3.08826
L1D PREFETCH  ACCESS:     942788  HIT:     129576  MISS:     813212  HIT %:    13.7439  MISS %:    86.2561   MPKI: 16.2642
AGUS PREFETCH L1 MISS: 0
L1D PREFETCH  REQUESTED:    2036062  ISSUED:    1974550  USEFUL:     480240  USELESS:     333033
L1D USEFUL LOAD PREFETCHES:     480240 PREFETCH ISSUED TO LOWER LEVEL:     820912  ACCURACY: 58.5008
L1D TIMELY PREFETCHES:     480240 LATE PREFETCHES: 6592 DROPPED PREFETCHES: 0
L1D PREFETCHES SAME FILL-ORIGIN LEVEL: 820912 DIFFERENT FILL-ORIGIN LEVEL: 0
L1D AVERAGE MISS LATENCY: 159.24 cycles
L1D RQ	ACCESS:   14077423	FORWARD:          0	MERGED:    4056078	TO_CACHE:    9570865
L1D WQ	ACCESS:    8476021	FORWARD:     450491	MERGED:     185774	TO_CACHE:    8290247
L1D PQ	ACCESS:     997382	FORWARD:          0	MERGED:      20203	TO_CACHE:     977168

L1D UNIQUE REGIONS ACCESSED: 0
L1D REGIONS CONFLICTS: 0
L1D Cross Page Prefetch Requests: 1672317
L1D Same Page Prefetch Requests: 88467
L1D ROI Sum of L1D PQ occupancy: 55390427
L1D PREFETCHES PUSHED FROM L2C: 0
L1I TOTAL     ACCESS:    9807997  HIT:    9806456  MISS:       1541  HIT %:    99.9843  MISS %:  0.0157117   MPKI: 0.03082
L1I LOAD      ACCESS:    9807997  HIT:    9806456  MISS:       1541  HIT %:    99.9843  MISS %:  0.0157117   MPKI: 0.03082
L1I PREFETCH  REQUESTED:          0  ISSUED:          0  USEFUL:          0  USELESS:          0
L1I USEFUL LOAD PREFETCHES:          0 PREFETCH ISSUED TO LOWER LEVEL:          0  ACCURACY: -nan
L1I TIMELY PREFETCHES:          0 LATE PREFETCHES: 0 DROPPED PREFETCHES: 0
L1I PREFETCHES SAME FILL-ORIGIN LEVEL: 0 DIFFERENT FILL-ORIGIN LEVEL: 0
L1I AVERAGE MISS LATENCY: 157.367 cycles
L1I RQ	ACCESS:   14765380	FORWARD:          0	MERGED:    4957083	TO_CACHE:    9808297

BTB TOTAL     ACCESS:   10008119  HIT:    9487971  MISS:     520148  HIT %:    94.8027  MISS %:    5.19726   MPKI: 10.403
BTB BRANCH_DIRECT_JUMP	ACCESS:     964405  HIT:     964243  MISS:        162
BTB BRANCH_INDIRECT	ACCESS:     140341  HIT:     116325  MISS:      24016
BTB BRANCH_CONDITIONAL	ACCESS:    5906166  HIT:    5905777  MISS:        389
BTB BRANCH_DIRECT_CALL	ACCESS:    1294152  HIT:    1293861  MISS:        291
BTB BRANCH_INDIRECT_CALL	ACCESS:     204449  HIT:     203146  MISS:       1303
BTB BRANCH_RETURN	ACCESS:    1498606  HIT:    1004619  MISS:     493987
BTB BRANCH_OTHER ACCESS:          0  HIT:          0  MISS:          0

L2C TOTAL     ACCESS:    2409803  HIT:    1052549  MISS:    1357254  HIT %:    43.6778  MISS %:    56.3222   MPKI: 27.1451
L2C LOAD      ACCESS:     556648  HIT:     141165  MISS:     415483  HIT %:    25.3598  MISS %:    74.6402   MPKI: 8.30966
L2C DATA LOAD MPKI: 8.28304
L2C INSTRUCTION LOAD MPKI: 0.02662
L2C RFO       ACCESS:     153305  HIT:      11908  MISS:     141397  HIT %:    7.76752  MISS %:    92.2325   MPKI: 2.82794
L2C PREFETCH  ACCESS:     820892  HIT:     149105  MISS:     671787  HIT %:    18.1638  MISS %:    81.8362   MPKI: 13.4357
AGUS PREFETCH L1 MISS: 0
L2C DATA PREFETCH MPKI: 13.4357
L2C INSTRUCTION PREFETCH MPKI: 0
L2C WRITEBACK ACCESS:     500485  HIT:     499102  MISS:       1383  HIT %:    99.7237  MISS %:   0.276332   MPKI: 0.02766
L2C LOAD TRANSLATION ACCESS:     113732  HIT:      78080  MISS:      35652  HIT %:    68.6526  MISS %:    31.3474   MPKI: 0.71304
L2C TRANSLATION FROM L1D PREFETCHER ACCESS:     264741  HIT:     173189  MISS:      91552  HIT %:    65.4183  MISS %:    34.5817   MPKI: 1.83104
L2C PREFETCH  REQUESTED:          0  ISSUED:          0  USEFUL:     100443  USELESS:     662472
L2C USEFUL LOAD PREFETCHES:     100443 PREFETCH ISSUED TO LOWER LEVEL:     671787  ACCURACY: 14.9516
L2C TIMELY PREFETCHES:     100443 LATE PREFETCHES: 0 DROPPED PREFETCHES: 0
L2C PREFETCHES SAME FILL-ORIGIN LEVEL: 0 DIFFERENT FILL-ORIGIN LEVEL: 0
L2C AVERAGE MISS LATENCY: 170.279 cycles
L2C RQ	ACCESS:    1088442	FORWARD:          0	MERGED:          0	TO_CACHE:    1088426
L2C WQ	ACCESS:     500485	FORWARD:         36	MERGED:          0	TO_CACHE:     500485
L2C PQ	ACCESS:     820912	FORWARD:          0	MERGED:          0	TO_CACHE:     820892

L2C Instructions Evicting Data 1226
L2C Translations Evicting Data 114729
L2C Data Evicting Data 1110766
L2C Instructions Evicting Instructions 6
L2C Translations Evicting Instructions 117
L2C Data Evicting Instructions 1207
L2C Instructions Evicting Translations 99
L2C Translations Evicting Translations 12358
L2C Data Evicting Translations 115363
L2C Dense regions hint from L2: 0
PSCL5 TOTAL     ACCESS:     341643  HIT:     341643  MISS:          0  HIT %:        100  MISS %:          0   MPKI: 0
PSCL5 LOAD TRANSLATION ACCESS:     103332  HIT:     103332  MISS:          0  HIT %:        100  MISS %:          0   MPKI: 0
PSCL5 TRANSLATION FROM L1D PREFETCHER ACCESS:     238311  HIT:     238311  MISS:          0  HIT %:        100  MISS %:          0   MPKI: 0
PSCL5 PREFETCH  REQUESTED:          0  ISSUED:          0  USEFUL:          0  USELESS:          0
PSCL5 USEFUL LOAD PREFETCHES:          0 PREFETCH ISSUED TO LOWER LEVEL:          0  ACCURACY: -nan
PSCL5 TIMELY PREFETCHES:          0 LATE PREFETCHES: 0 DROPPED PREFETCHES: 0
PSCL5 PREFETCHES SAME FILL-ORIGIN LEVEL: 0 DIFFERENT FILL-ORIGIN LEVEL: 0

PSCL4 TOTAL     ACCESS:     341643  HIT:     341643  MISS:          0  HIT %:        100  MISS %:          0   MPKI: 0
PSCL4 LOAD TRANSLATION ACCESS:     103332  HIT:     103332  MISS:          0  HIT %:        100  MISS %:          0   MPKI: 0
PSCL4 TRANSLATION FROM L1D PREFETCHER ACCESS:     238311  HIT:     238311  MISS:          0  HIT %:        100  MISS %:          0   MPKI: 0
PSCL4 PREFETCH  REQUESTED:          0  ISSUED:          0  USEFUL:          0  USELESS:          0
PSCL4 USEFUL LOAD PREFETCHES:          0 PREFETCH ISSUED TO LOWER LEVEL:          0  ACCURACY: -nan
PSCL4 TIMELY PREFETCHES:          0 LATE PREFETCHES: 0 DROPPED PREFETCHES: 0
PSCL4 PREFETCHES SAME FILL-ORIGIN LEVEL: 0 DIFFERENT FILL-ORIGIN LEVEL: 0

PSCL3 TOTAL     ACCESS:     341643  HIT:     341643  MISS:          0  HIT %:        100  MISS %:          0   MPKI: 0
PSCL3 LOAD TRANSLATION ACCESS:     103332  HIT:     103332  MISS:          0  HIT %:        100  MISS %:          0   MPKI: 0
PSCL3 TRANSLATION FROM L1D PREFETCHER ACCESS:     238311  HIT:     238311  MISS:          0  HIT %:        100  MISS %:          0   MPKI: 0
PSCL3 PREFETCH  REQUESTED:          0  ISSUED:          0  USEFUL:          0  USELESS:          0
PSCL3 USEFUL LOAD PREFETCHES:          0 PREFETCH ISSUED TO LOWER LEVEL:          0  ACCURACY: -nan
PSCL3 TIMELY PREFETCHES:          0 LATE PREFETCHES: 0 DROPPED PREFETCHES: 0
PSCL3 PREFETCHES SAME FILL-ORIGIN LEVEL: 0 DIFFERENT FILL-ORIGIN LEVEL: 0

PSCL2 TOTAL     ACCESS:     341643  HIT:     304812  MISS:      36831  HIT %:    89.2194  MISS %:    10.7806   MPKI: 0.73662
PSCL2 LOAD TRANSLATION ACCESS:     129762  HIT:      92931  MISS:      36831  HIT %:    71.6165  MISS %:    28.3835   MPKI: 0.73662
PSCL2 TRANSLATION FROM L1D PREFETCHER ACCESS:     211881  HIT:     211881  MISS:          0  HIT %:        100  MISS %:          0   MPKI: 0
PSCL2 PREFETCH  REQUESTED:          0  ISSUED:          0  USEFUL:          0  USELESS:          0
PSCL2 USEFUL LOAD PREFETCHES:          0 PREFETCH ISSUED TO LOWER LEVEL:          0  ACCURACY: -nan
PSCL2 TIMELY PREFETCHES:          0 LATE PREFETCHES: 0 DROPPED PREFETCHES: 0
PSCL2 PREFETCHES SAME FILL-ORIGIN LEVEL: 0 DIFFERENT FILL-ORIGIN LEVEL: 0

LLC TOTAL     ACCESS:    1799475  HIT:     796166  MISS:    1003309  HIT %:    44.2443  MISS %:    55.7557   MPKI: 20.0662
LLC LOAD      ACCESS:     415483  HIT:      94196  MISS:     321287  HIT %:    22.6714  MISS %:    77.3286   MPKI: 6.42574
LLC RFO       ACCESS:     141397  HIT:      20714  MISS:     120683  HIT %:    14.6495  MISS %:    85.3505   MPKI: 2.41366
LLC PREFETCH  ACCESS:     671785  HIT:     147471  MISS:     524314  HIT %:    21.9521  MISS %:    78.0479   MPKI: 10.4863
AGUS PREFETCH L1 MISS: 0
LLC WRITEBACK ACCESS:     443606  HIT:     442806  MISS:        800  HIT %:    99.8197  MISS %:    0.18034   MPKI: 0.016
LLC LOAD TRANSLATION ACCESS:      35652  HIT:      27911  MISS:       7741  HIT %:    78.2873  MISS %:    21.7127   MPKI: 0.15482
LLC TRANSLATION FROM L1D PREFETCHER ACCESS:      91552  HIT:      63068  MISS:      28484  HIT %:    68.8876  MISS %:    31.1124   MPKI: 0.56968
LLC PREFETCH  REQUESTED:          0  ISSUED:          0  USEFUL:      42562  USELESS:     508401
LLC USEFUL LOAD PREFETCHES:      42562 PREFETCH ISSUED TO LOWER LEVEL:     524314  ACCURACY: 8.11765
LLC TIMELY PREFETCHES:      42562 LATE PREFETCHES: 0 DROPPED PREFETCHES: 0
LLC PREFETCHES SAME FILL-ORIGIN LEVEL: 0 DIFFERENT FILL-ORIGIN LEVEL: 0
LLC AVERAGE MISS LATENCY: 189.77 cycles
LLC RQ	ACCESS:     684084	FORWARD:          0	MERGED:          0	TO_CACHE:     684084
LLC WQ	ACCESS:     443606	FORWARD:          2	MERGED:          0	TO_CACHE:     443606
LLC PQ	ACCESS:     671787	FORWARD:          0	MERGED:          0	TO_CACHE:     671785

LLC Dense regions hint to LLC: 0

RAW hits: 798012
Loads Generated: 14875435
Loads sent to L1D: 14077423
Stores Generated: 8476009
Stores sent to L1D: 8476021
Major fault: 0 Minor fault: 33441
Allocated PAGES: 33441
Prefetcher final stats
Training Unit Size: 1506
Addr table size: 385943 396239


Triggers: 16282339
Structural address exists: 874982 5.37381
No Prediction: 15407357 94.6262
Prefetches issued: 1760784 10.8141
Useful Prefetches: 480240
Useless Prefetches: 333033
Stream end: 764862
No translation: 775350772
%Stream divergence: 1392928 8.55484
Stream divergence -- new stream: 0

DRAM Statistics
 CHANNEL 0
 RQ ROW_BUFFER_HIT:     114578  ROW_BUFFER_MISS:     887918
 DBUS_CONGESTED:        195
 WQ ROW_BUFFER_HIT:      54906  ROW_BUFFER_MISS:     314638  FULL:          0

 AVG_CONGESTED_CYCLE: 4
 All warmup complete: 2
Channel 0 Bank busy for read cycles: 0
Channel 0 Bank busy for write cycles: 0
Channel 0
Rank 0
0banks busy for read cycles: 70203927
0banks busy for write cycles: 112992
1banks busy for read cycles: 35236766
1banks busy for write cycles: 14536329
2banks busy for read cycles: 16786789
2banks busy for write cycles: 7361968
3banks busy for read cycles: 8291996
3banks busy for write cycles: 4256314
4banks busy for read cycles: 4705023
4banks busy for write cycles: 2607001
5banks busy for read cycles: 2805928
5banks busy for write cycles: 1638456
6banks busy for read cycles: 1393225
6banks busy for write cycles: 959755
7banks busy for read cycles: 443161
7banks busy for write cycles: 467184
8banks busy for read cycles: 115093
8banks busy for write cycles: 171298

CPU 0 Branch Prediction Accuracy: 94.0755% MPKI: 14.2353 Average ROB Occupancy at Mispredict: 25.5676
Branch types
NOT_BRANCH: 37985796 75.9716%
BRANCH_DIRECT_JUMP: 964405 1.92881%
BRANCH_INDIRECT: 140341 0.280682%
BRANCH_CONDITIONAL: 7911981 15.824%
BRANCH_DIRECT_CALL: 1294152 2.5883%
BRANCH_INDIRECT_CALL: 204449 0.408898%
BRANCH_RETURN: 1498606 2.99721%
BRANCH_OTHER: 0 0%

DRAM PAGES: 1048576
Allocated PAGES: 33441
