
*** ChampSim Multicore Out-of-Order Simulator ***

Warmup Instructions: 50000000
Simulation Instructions: 50000000
Number of CPUs: 1
LLC sets: 2048
LLC ways: 16
Off-chip DRAM Size: 4096 MB Channels: 1 Width: 64-bit Data Rate: 6400 MT/s
CPU 0 runs traces/SPEC-CPU2017/471.omnetpp-188B.champsimtrace.xz
.xz
CPU 0 Bimodal branch predictor
BTB has LRU replacement policy
ITLB has LRU replacement policy
DTLB has LRU replacement policy
STLB has LRU replacement policy
L1I has LRU replacement policy
Ideal ISB Prefetching
L1D has LRU replacement policy
L2C has LRU replacement policy
LLC has LRU replacement policy
Heartbeat CPU 0 instructions: 10000001 cycles: 3322823 heartbeat IPC: 3.00949 cumulative IPC: 3.00949 (Simulation time: 0 hr 8 min 53 sec) 
Heartbeat CPU 0 instructions: 20000000 cycles: 6602312 heartbeat IPC: 3.04926 cumulative IPC: 3.02924 (Simulation time: 0 hr 20 min 4 sec) 
Heartbeat CPU 0 instructions: 30000000 cycles: 9914634 heartbeat IPC: 3.01903 cumulative IPC: 3.02583 (Simulation time: 0 hr 29 min 40 sec) 
Heartbeat CPU 0 instructions: 40000000 cycles: 13214609 heartbeat IPC: 3.03033 cumulative IPC: 3.02695 (Simulation time: 0 hr 40 min 50 sec) 
Heartbeat CPU 0 instructions: 50000003 cycles: 16501556 heartbeat IPC: 3.04234 cumulative IPC: 3.03002 (Simulation time: 0 hr 51 min 22 sec) 

Warmup complete CPU 0 instructions: 50000003 cycles: 16501556 (Simulation time: 0 hr 51 min 22 sec) 

Heartbeat CPU 0 instructions: 60000000 cycles: 49829997 heartbeat IPC: 0.300044 cumulative IPC: 0.300044 (Simulation time: 1 hr 4 min 2 sec) 
Heartbeat CPU 0 instructions: 70000001 cycles: 81292028 heartbeat IPC: 0.317843 cumulative IPC: 0.308687 (Simulation time: 1 hr 17 min 10 sec) 
Heartbeat CPU 0 instructions: 80000000 cycles: 112079746 heartbeat IPC: 0.324805 cumulative IPC: 0.313879 (Simulation time: 1 hr 29 min 36 sec) 
Heartbeat CPU 0 instructions: 90000003 cycles: 142723389 heartbeat IPC: 0.326332 cumulative IPC: 0.316902 (Simulation time: 1 hr 42 min 43 sec) 
Heartbeat CPU 0 instructions: 100000000 cycles: 173868909 heartbeat IPC: 0.321073 cumulative IPC: 0.317728 (Simulation time: 1 hr 57 min 9 sec) 
Finished CPU 0 instructions: 50000000 cycles: 157367362 cumulative IPC: 0.317728 (Simulation time: 1 hr 57 min 9 sec) 

ChampSim completed all CPUs

Region of Interest Statistics

CPU 0 cumulative IPC: 0.317728 instructions: 50000000 cycles: 157367362
ITLB TOTAL     ACCESS:    8712603  HIT:    8695400  MISS:      17203  HIT %:    99.8026  MISS %:    0.19745   MPKI: 0.34406
ITLB LOAD TRANSLATION ACCESS:    8712603  HIT:    8695400  MISS:      17203  HIT %:    99.8026  MISS %:    0.19745   MPKI: 0.34406
ITLB PREFETCH  REQUESTED:          0  ISSUED:          0  USEFUL:          0  USELESS:          0
ITLB USEFUL LOAD PREFETCHES:          0 PREFETCH ISSUED TO LOWER LEVEL:          0  ACCURACY: -nan
ITLB TIMELY PREFETCHES:          0 LATE PREFETCHES: 0 DROPPED PREFETCHES: 0
ITLB PREFETCHES SAME FILL-ORIGIN LEVEL: 0 DIFFERENT FILL-ORIGIN LEVEL: 0
ITLB AVERAGE MISS LATENCY: 12.6709 cycles
ITLB RQ	ACCESS:    9799644	FORWARD:          0	MERGED:    1079424	TO_CACHE:    8720220

DTLB TOTAL     ACCESS:   14726785  HIT:   13769043  MISS:     957742  HIT %:    93.4966  MISS %:     6.5034   MPKI: 19.1548
DTLB LOAD TRANSLATION ACCESS:   14726785  HIT:   13769043  MISS:     957742  HIT %:    93.4966  MISS %:     6.5034   MPKI: 19.1548
DTLB PREFETCH  REQUESTED:          0  ISSUED:          0  USEFUL:          0  USELESS:          0
DTLB USEFUL LOAD PREFETCHES:          0 PREFETCH ISSUED TO LOWER LEVEL:          0  ACCURACY: -nan
DTLB TIMELY PREFETCHES:          0 LATE PREFETCHES: 0 DROPPED PREFETCHES: 0
DTLB PREFETCHES SAME FILL-ORIGIN LEVEL: 0 DIFFERENT FILL-ORIGIN LEVEL: 0
DTLB AVERAGE MISS LATENCY: 15.3997 cycles
DTLB RQ	ACCESS:   17875609	FORWARD:          0	MERGED:    3104534	TO_CACHE:   14771075

STLB TOTAL     ACCESS:   11743410  HIT:   11327829  MISS:     415581  HIT %:    96.4612  MISS %:    3.53884   MPKI: 8.31162
STLB LOAD TRANSLATION ACCESS:     974945  HIT:     882964  MISS:      91981  HIT %:    90.5655  MISS %:    9.43448   MPKI: 1.83962
STLB TRANSLATION FROM L1D PREFETCHER ACCESS:   10768465  HIT:   10444865  MISS:     323600  HIT %:    96.9949  MISS %:    3.00507   MPKI: 6.472
STLB PREFETCH  REQUESTED:          0  ISSUED:          0  USEFUL:     252545  USELESS:      70919
STLB USEFUL LOAD PREFETCHES:     252545 PREFETCH ISSUED TO LOWER LEVEL:          0  ACCURACY: inf
STLB TIMELY PREFETCHES:     252545 LATE PREFETCHES: 378 DROPPED PREFETCHES: 0
STLB PREFETCHES SAME FILL-ORIGIN LEVEL: 0 DIFFERENT FILL-ORIGIN LEVEL: 0
STLB AVERAGE MISS LATENCY: 94.4359 cycles
STLB RQ	ACCESS:   12894599	FORWARD:          0	MERGED:    1149537	TO_CACHE:   11745062

STLB Hit, L1D data hit: 0
STLB Hit, L2C data hit: 0
STLB Hit, LLC data hit: 0
STLB Hit, LLC data miss: 0
STLB STLB hints to L2: 0
L1D TOTAL     ACCESS:   29213944  HIT:   27223587  MISS:    1990357  HIT %:     93.187  MISS %:    6.81304   MPKI: 39.8071
L1D LOAD      ACCESS:    9529970  HIT:    9024198  MISS:     505772  HIT %:    94.6928  MISS %:    5.30717   MPKI: 10.1154
L1D RFO       ACCESS:    7981063  HIT:    7840157  MISS:     140906  HIT %:    98.2345  MISS %:     1.7655   MPKI: 2.81812
L1D PREFETCH  ACCESS:   11702911  HIT:   10359232  MISS:    1343679  HIT %:    88.5184  MISS %:    11.4816   MPKI: 26.8736
AGUS PREFETCH L1 MISS: 0
L1D PREFETCH  REQUESTED:   29207757  ISSUED:   24026160  USEFUL:     617746  USELESS:     726039
L1D USEFUL LOAD PREFETCHES:     617746 PREFETCH ISSUED TO LOWER LEVEL:    1348095  ACCURACY: 45.8236
L1D TIMELY PREFETCHES:     617746 LATE PREFETCHES: 4075 DROPPED PREFETCHES: 0
L1D PREFETCHES SAME FILL-ORIGIN LEVEL: 1348095 DIFFERENT FILL-ORIGIN LEVEL: 0
L1D AVERAGE MISS LATENCY: 130.475 cycles
L1D RQ	ACCESS:   14107201	FORWARD:          0	MERGED:    4060715	TO_CACHE:    9583280
L1D WQ	ACCESS:    8476021	FORWARD:     463442	MERGED:     183692	TO_CACHE:    8292329
L1D PQ	ACCESS:   12106506	FORWARD:          0	MERGED:     186616	TO_CACHE:   11919654

L1D UNIQUE REGIONS ACCESSED: 0
L1D REGIONS CONFLICTS: 0
L1D Cross Page Prefetch Requests: 19086976
L1D Same Page Prefetch Requests: 1212487
L1D ROI Sum of L1D PQ occupancy: 254621491
L1D PREFETCHES PUSHED FROM L2C: 0
L1I TOTAL     ACCESS:    9799342  HIT:    9797801  MISS:       1541  HIT %:    99.9843  MISS %:  0.0157255   MPKI: 0.03082
L1I LOAD      ACCESS:    9799342  HIT:    9797801  MISS:       1541  HIT %:    99.9843  MISS %:  0.0157255   MPKI: 0.03082
L1I PREFETCH  REQUESTED:          0  ISSUED:          0  USEFUL:          0  USELESS:          0
L1I USEFUL LOAD PREFETCHES:          0 PREFETCH ISSUED TO LOWER LEVEL:          0  ACCURACY: -nan
L1I TIMELY PREFETCHES:          0 LATE PREFETCHES: 0 DROPPED PREFETCHES: 0
L1I PREFETCHES SAME FILL-ORIGIN LEVEL: 0 DIFFERENT FILL-ORIGIN LEVEL: 0
L1I AVERAGE MISS LATENCY: 159.567 cycles
L1I RQ	ACCESS:   14748588	FORWARD:          0	MERGED:    4948944	TO_CACHE:    9799644

BTB TOTAL     ACCESS:   10008119  HIT:    9487971  MISS:     520148  HIT %:    94.8027  MISS %:    5.19726   MPKI: 10.403
BTB BRANCH_DIRECT_JUMP	ACCESS:     964405  HIT:     964243  MISS:        162
BTB BRANCH_INDIRECT	ACCESS:     140341  HIT:     116325  MISS:      24016
BTB BRANCH_CONDITIONAL	ACCESS:    5906166  HIT:    5905777  MISS:        389
BTB BRANCH_DIRECT_CALL	ACCESS:    1294152  HIT:    1293861  MISS:        291
BTB BRANCH_INDIRECT_CALL	ACCESS:     204449  HIT:     203146  MISS:       1303
BTB BRANCH_RETURN	ACCESS:    1498606  HIT:    1004619  MISS:     493987
BTB BRANCH_OTHER ACCESS:          0  HIT:          0  MISS:          0

L2C TOTAL     ACCESS:    2972394  HIT:    1503339  MISS:    1469055  HIT %:    50.5767  MISS %:    49.4233   MPKI: 29.3811
L2C LOAD      ACCESS:     503148  HIT:     207062  MISS:     296086  HIT %:    41.1533  MISS %:    58.8467   MPKI: 5.92172
L2C DATA LOAD MPKI: 5.89458
L2C INSTRUCTION LOAD MPKI: 0.02714
L2C RFO       ACCESS:     140557  HIT:      20443  MISS:     120114  HIT %:    14.5443  MISS %:    85.4557   MPKI: 2.40228
L2C PREFETCH  ACCESS:    1348024  HIT:     443344  MISS:     904680  HIT %:    32.8884  MISS %:    67.1116   MPKI: 18.0936
AGUS PREFETCH L1 MISS: 0
L2C DATA PREFETCH MPKI: 18.0936
L2C INSTRUCTION PREFETCH MPKI: 0
L2C WRITEBACK ACCESS:     524515  HIT:     522611  MISS:       1904  HIT %:     99.637  MISS %:   0.363002   MPKI: 0.03808
L2C LOAD TRANSLATION ACCESS:      99654  HIT:      71796  MISS:      27858  HIT %:    72.0453  MISS %:    27.9547   MPKI: 0.55716
L2C TRANSLATION FROM L1D PREFETCHER ACCESS:     356496  HIT:     238083  MISS:     118413  HIT %:    66.7842  MISS %:    33.2158   MPKI: 2.36826
L2C PREFETCH  REQUESTED:          0  ISSUED:          0  USEFUL:     140257  USELESS:     882888
L2C USEFUL LOAD PREFETCHES:     140257 PREFETCH ISSUED TO LOWER LEVEL:     904680  ACCURACY: 15.5035
L2C TIMELY PREFETCHES:     140257 LATE PREFETCHES: 0 DROPPED PREFETCHES: 0
L2C PREFETCHES SAME FILL-ORIGIN LEVEL: 0 DIFFERENT FILL-ORIGIN LEVEL: 0
L2C AVERAGE MISS LATENCY: 163.738 cycles
L2C RQ	ACCESS:    1099953	FORWARD:          0	MERGED:          0	TO_CACHE:    1099855
L2C WQ	ACCESS:     524515	FORWARD:        169	MERGED:          0	TO_CACHE:     524515
L2C PQ	ACCESS:    1348095	FORWARD:          0	MERGED:          0	TO_CACHE:    1348024

L2C Instructions Evicting Data 1240
L2C Translations Evicting Data 131180
L2C Data Evicting Data 1186776
L2C Instructions Evicting Instructions 5
L2C Translations Evicting Instructions 126
L2C Data Evicting Instructions 1226
L2C Instructions Evicting Translations 112
L2C Translations Evicting Translations 14965
L2C Data Evicting Translations 131521
L2C Dense regions hint from L2: 0
PSCL5 TOTAL     ACCESS:     415581  HIT:     415581  MISS:          0  HIT %:        100  MISS %:          0   MPKI: 0
PSCL5 LOAD TRANSLATION ACCESS:      91603  HIT:      91603  MISS:          0  HIT %:        100  MISS %:          0   MPKI: 0
PSCL5 TRANSLATION FROM L1D PREFETCHER ACCESS:     323978  HIT:     323978  MISS:          0  HIT %:        100  MISS %:          0   MPKI: 0
PSCL5 PREFETCH  REQUESTED:          0  ISSUED:          0  USEFUL:          0  USELESS:          0
PSCL5 USEFUL LOAD PREFETCHES:          0 PREFETCH ISSUED TO LOWER LEVEL:          0  ACCURACY: -nan
PSCL5 TIMELY PREFETCHES:          0 LATE PREFETCHES: 0 DROPPED PREFETCHES: 0
PSCL5 PREFETCHES SAME FILL-ORIGIN LEVEL: 0 DIFFERENT FILL-ORIGIN LEVEL: 0

PSCL4 TOTAL     ACCESS:     415581  HIT:     415581  MISS:          0  HIT %:        100  MISS %:          0   MPKI: 0
PSCL4 LOAD TRANSLATION ACCESS:      91603  HIT:      91603  MISS:          0  HIT %:        100  MISS %:          0   MPKI: 0
PSCL4 TRANSLATION FROM L1D PREFETCHER ACCESS:     323978  HIT:     323978  MISS:          0  HIT %:        100  MISS %:          0   MPKI: 0
PSCL4 PREFETCH  REQUESTED:          0  ISSUED:          0  USEFUL:          0  USELESS:          0
PSCL4 USEFUL LOAD PREFETCHES:          0 PREFETCH ISSUED TO LOWER LEVEL:          0  ACCURACY: -nan
PSCL4 TIMELY PREFETCHES:          0 LATE PREFETCHES: 0 DROPPED PREFETCHES: 0
PSCL4 PREFETCHES SAME FILL-ORIGIN LEVEL: 0 DIFFERENT FILL-ORIGIN LEVEL: 0

PSCL3 TOTAL     ACCESS:     415581  HIT:     415581  MISS:          0  HIT %:        100  MISS %:          0   MPKI: 0
PSCL3 LOAD TRANSLATION ACCESS:      91603  HIT:      91603  MISS:          0  HIT %:        100  MISS %:          0   MPKI: 0
PSCL3 TRANSLATION FROM L1D PREFETCHER ACCESS:     323978  HIT:     323978  MISS:          0  HIT %:        100  MISS %:          0   MPKI: 0
PSCL3 PREFETCH  REQUESTED:          0  ISSUED:          0  USEFUL:          0  USELESS:          0
PSCL3 USEFUL LOAD PREFETCHES:          0 PREFETCH ISSUED TO LOWER LEVEL:          0  ACCURACY: -nan
PSCL3 TIMELY PREFETCHES:          0 LATE PREFETCHES: 0 DROPPED PREFETCHES: 0
PSCL3 PREFETCHES SAME FILL-ORIGIN LEVEL: 0 DIFFERENT FILL-ORIGIN LEVEL: 0

PSCL2 TOTAL     ACCESS:     415581  HIT:     375011  MISS:      40570  HIT %:    90.2378  MISS %:    9.76224   MPKI: 0.8114
PSCL2 LOAD TRANSLATION ACCESS:     124121  HIT:      83551  MISS:      40570  HIT %:    67.3142  MISS %:    32.6858   MPKI: 0.8114
PSCL2 TRANSLATION FROM L1D PREFETCHER ACCESS:     291460  HIT:     291460  MISS:          0  HIT %:        100  MISS %:          0   MPKI: 0
PSCL2 PREFETCH  REQUESTED:          0  ISSUED:          0  USEFUL:          0  USELESS:          0
PSCL2 USEFUL LOAD PREFETCHES:          0 PREFETCH ISSUED TO LOWER LEVEL:          0  ACCURACY: -nan
PSCL2 TIMELY PREFETCHES:          0 LATE PREFETCHES: 0 DROPPED PREFETCHES: 0
PSCL2 PREFETCHES SAME FILL-ORIGIN LEVEL: 0 DIFFERENT FILL-ORIGIN LEVEL: 0

LLC TOTAL     ACCESS:    1913877  HIT:     873045  MISS:    1040832  HIT %:    45.6166  MISS %:    54.3834   MPKI: 20.8166
LLC LOAD      ACCESS:     296086  HIT:      79251  MISS:     216835  HIT %:    26.7662  MISS %:    73.2338   MPKI: 4.3367
LLC RFO       ACCESS:     120114  HIT:      16978  MISS:     103136  HIT %:    14.1349  MISS %:    85.8651   MPKI: 2.06272
LLC PREFETCH  ACCESS:     904676  HIT:     218781  MISS:     685895  HIT %:    24.1834  MISS %:    75.8166   MPKI: 13.7179
AGUS PREFETCH L1 MISS: 0
LLC WRITEBACK ACCESS:     446730  HIT:     445709  MISS:       1021  HIT %:    99.7715  MISS %:    0.22855   MPKI: 0.02042
LLC LOAD TRANSLATION ACCESS:      27858  HIT:      22779  MISS:       5079  HIT %:    81.7683  MISS %:    18.2317   MPKI: 0.10158
LLC TRANSLATION FROM L1D PREFETCHER ACCESS:     118413  HIT:      89547  MISS:      28866  HIT %:    75.6226  MISS %:    24.3774   MPKI: 0.57732
LLC PREFETCH  REQUESTED:          0  ISSUED:          0  USEFUL:      41149  USELESS:     671480
LLC USEFUL LOAD PREFETCHES:      41149 PREFETCH ISSUED TO LOWER LEVEL:     685895  ACCURACY: 5.99931
LLC TIMELY PREFETCHES:      41149 LATE PREFETCHES: 0 DROPPED PREFETCHES: 0
LLC PREFETCHES SAME FILL-ORIGIN LEVEL: 0 DIFFERENT FILL-ORIGIN LEVEL: 0
LLC AVERAGE MISS LATENCY: 188.777 cycles
LLC RQ	ACCESS:     562471	FORWARD:          0	MERGED:          0	TO_CACHE:     562471
LLC WQ	ACCESS:     446730	FORWARD:          4	MERGED:          0	TO_CACHE:     446730
LLC PQ	ACCESS:     904680	FORWARD:          0	MERGED:          0	TO_CACHE:     904676

LLC Dense regions hint to LLC: 0

RAW hits: 768235
Loads Generated: 14875436
Loads sent to L1D: 14107201
Stores Generated: 8476009
Stores sent to L1D: 8476021
Major fault: 0 Minor fault: 33441
Allocated PAGES: 33441
Prefetcher final stats
Training Unit Size: 556
Addr table size: 388340 388384


Triggers: 16295506
No Prediction: 6766758 41.5253
Stream end: 6512947
No translation: 786306039 4825.29
Predictions: 20299463 124.571


Stream divergence: 224934 1.38034
Stream divergence -- new stream: 0

DRAM Statistics
 CHANNEL 0
 RQ ROW_BUFFER_HIT:      87001  ROW_BUFFER_MISS:     952784
 DBUS_CONGESTED:        215
 WQ ROW_BUFFER_HIT:      56607  ROW_BUFFER_MISS:     315646  FULL:          0

 AVG_CONGESTED_CYCLE: 4
 All warmup complete: 2
Channel 0 Bank busy for read cycles: 0
Channel 0 Bank busy for write cycles: 0
Channel 0
Rank 0
0banks busy for read cycles: 53425939
0banks busy for write cycles: 95807
1banks busy for read cycles: 34807741
1banks busy for write cycles: 12277055
2banks busy for read cycles: 19103422
2banks busy for write cycles: 6785530
3banks busy for read cycles: 10383952
3banks busy for write cycles: 4248705
4banks busy for read cycles: 5225125
4banks busy for write cycles: 2841723
5banks busy for read cycles: 2527923
5banks busy for write cycles: 1857482
6banks busy for read cycles: 1091363
6banks busy for write cycles: 1172432
7banks busy for read cycles: 343605
7banks busy for write cycles: 707611
8banks busy for read cycles: 77020
8banks busy for write cycles: 394928

CPU 0 Branch Prediction Accuracy: 94.0755% MPKI: 14.2353 Average ROB Occupancy at Mispredict: 25.0768
Branch types
NOT_BRANCH: 37985796 75.9716%
BRANCH_DIRECT_JUMP: 964405 1.92881%
BRANCH_INDIRECT: 140341 0.280682%
BRANCH_CONDITIONAL: 7911981 15.824%
BRANCH_DIRECT_CALL: 1294152 2.5883%
BRANCH_INDIRECT_CALL: 204449 0.408898%
BRANCH_RETURN: 1498606 2.99721%
BRANCH_OTHER: 0 0%

DRAM PAGES: 1048576
Allocated PAGES: 33441
