
*** ChampSim Multicore Out-of-Order Simulator ***

Warmup Instructions: 50000000
Simulation Instructions: 50000000
Number of CPUs: 1
LLC sets: 2048
LLC ways: 16
Off-chip DRAM Size: 4096 MB Channels: 1 Width: 64-bit Data Rate: 6400 MT/s
CPU 0 runs traces/SPEC-CPU2017/471.omnetpp-188B.champsimtrace.xz
.xz
CPU 0 Bimodal branch predictor
BTB has LRU replacement policy
ITLB has LRU replacement policy
DTLB has LRU replacement policy
STLB has LRU replacement policy
L1I has LRU replacement policy
Ideal ISB Prefetching
L1D has LRU replacement policy
L2C has LRU replacement policy
LLC has LRU replacement policy
Heartbeat CPU 0 instructions: 10000001 cycles: 3295608 heartbeat IPC: 3.03434 cumulative IPC: 3.03434 (Simulation time: 0 hr 16 min 8 sec) 
Heartbeat CPU 0 instructions: 20000000 cycles: 6547695 heartbeat IPC: 3.07495 cumulative IPC: 3.05451 (Simulation time: 0 hr 34 min 45 sec) 
Heartbeat CPU 0 instructions: 30000000 cycles: 9825673 heartbeat IPC: 3.05066 cumulative IPC: 3.05323 (Simulation time: 0 hr 52 min 58 sec) 
Heartbeat CPU 0 instructions: 40000000 cycles: 13090455 heartbeat IPC: 3.06299 cumulative IPC: 3.05566 (Simulation time: 1 hr 12 min 24 sec) 
Heartbeat CPU 0 instructions: 50000003 cycles: 16343959 heartbeat IPC: 3.07361 cumulative IPC: 3.05923 (Simulation time: 1 hr 31 min 3 sec) 

Warmup complete CPU 0 instructions: 50000003 cycles: 16343959 (Simulation time: 1 hr 31 min 3 sec) 

Heartbeat CPU 0 instructions: 60000000 cycles: 51784414 heartbeat IPC: 0.282163 cumulative IPC: 0.282163 (Simulation time: 1 hr 53 min 34 sec) 
Heartbeat CPU 0 instructions: 70000001 cycles: 85516585 heartbeat IPC: 0.296453 cumulative IPC: 0.289132 (Simulation time: 2 hr 16 min 55 sec) 
Heartbeat CPU 0 instructions: 80000000 cycles: 119518387 heartbeat IPC: 0.294102 cumulative IPC: 0.29077 (Simulation time: 2 hr 39 min 6 sec) 
Heartbeat CPU 0 instructions: 90000003 cycles: 153218490 heartbeat IPC: 0.296735 cumulative IPC: 0.292238 (Simulation time: 3 hr 1 min 18 sec) 
Heartbeat CPU 0 instructions: 100000000 cycles: 187196662 heartbeat IPC: 0.294307 cumulative IPC: 0.29265 (Simulation time: 3 hr 23 min 44 sec) 
Finished CPU 0 instructions: 50000000 cycles: 170852712 cumulative IPC: 0.29265 (Simulation time: 3 hr 23 min 44 sec) 

ChampSim completed all CPUs

Region of Interest Statistics

CPU 0 cumulative IPC: 0.29265 instructions: 50000000 cycles: 170852712
ITLB TOTAL     ACCESS:    8718598  HIT:    8701395  MISS:      17203  HIT %:    99.8027  MISS %:   0.197314   MPKI: 0.34406
ITLB LOAD TRANSLATION ACCESS:    8718598  HIT:    8701395  MISS:      17203  HIT %:    99.8027  MISS %:   0.197314   MPKI: 0.34406
ITLB PREFETCH  REQUESTED:          0  ISSUED:          0  USEFUL:          0  USELESS:          0
ITLB USEFUL LOAD PREFETCHES:          0 PREFETCH ISSUED TO LOWER LEVEL:          0  ACCURACY: -nan
ITLB TIMELY PREFETCHES:          0 LATE PREFETCHES: 0 DROPPED PREFETCHES: 0
ITLB PREFETCHES SAME FILL-ORIGIN LEVEL: 0 DIFFERENT FILL-ORIGIN LEVEL: 0
ITLB AVERAGE MISS LATENCY: 12.0711 cycles
ITLB RQ	ACCESS:    9808272	FORWARD:          0	MERGED:    1082057	TO_CACHE:    8726215

DTLB TOTAL     ACCESS:   14704545  HIT:   13746845  MISS:     957700  HIT %:     93.487  MISS %:    6.51295   MPKI: 19.154
DTLB LOAD TRANSLATION ACCESS:   14704545  HIT:   13746845  MISS:     957700  HIT %:     93.487  MISS %:    6.51295   MPKI: 19.154
DTLB PREFETCH  REQUESTED:          0  ISSUED:          0  USEFUL:          0  USELESS:          0
DTLB USEFUL LOAD PREFETCHES:          0 PREFETCH ISSUED TO LOWER LEVEL:          0  ACCURACY: -nan
DTLB TIMELY PREFETCHES:          0 LATE PREFETCHES: 0 DROPPED PREFETCHES: 0
DTLB PREFETCHES SAME FILL-ORIGIN LEVEL: 0 DIFFERENT FILL-ORIGIN LEVEL: 0
DTLB AVERAGE MISS LATENCY: 15.9926 cycles
DTLB RQ	ACCESS:   17863372	FORWARD:          0	MERGED:    3114191	TO_CACHE:   14749181

STLB TOTAL     ACCESS:    7891305  HIT:    7539820  MISS:     351485  HIT %:    95.5459  MISS %:    4.45408   MPKI: 7.0297
STLB LOAD TRANSLATION ACCESS:     974903  HIT:     875394  MISS:      99509  HIT %:    89.7929  MISS %:    10.2071   MPKI: 1.99018
STLB TRANSLATION FROM L1D PREFETCHER ACCESS:    6916402  HIT:    6664426  MISS:     251976  HIT %:    96.3568  MISS %:    3.64317   MPKI: 5.03952
STLB PREFETCH  REQUESTED:          0  ISSUED:          0  USEFUL:     197727  USELESS:      54220
STLB USEFUL LOAD PREFETCHES:     197727 PREFETCH ISSUED TO LOWER LEVEL:          0  ACCURACY: inf
STLB TIMELY PREFETCHES:     197727 LATE PREFETCHES: 925 DROPPED PREFETCHES: 0
STLB PREFETCHES SAME FILL-ORIGIN LEVEL: 0 DIFFERENT FILL-ORIGIN LEVEL: 0
STLB AVERAGE MISS LATENCY: 96.6013 cycles
STLB RQ	ACCESS:    9079755	FORWARD:          0	MERGED:    1185495	TO_CACHE:    7894260

STLB Hit, L1D data hit: 0
STLB Hit, L2C data hit: 0
STLB Hit, LLC data hit: 0
STLB Hit, LLC data miss: 0
STLB STLB hints to L2: 0
L1D TOTAL     ACCESS:   25450467  HIT:   23889099  MISS:    1561368  HIT %:    93.8651  MISS %:    6.13493   MPKI: 31.2274
L1D LOAD      ACCESS:    9504365  HIT:    8968008  MISS:     536357  HIT %:    94.3567  MISS %:    5.64327   MPKI: 10.7271
L1D RFO       ACCESS:    7952453  HIT:    7814350  MISS:     138103  HIT %:    98.2634  MISS %:    1.73661   MPKI: 2.76206
L1D PREFETCH  ACCESS:    7993649  HIT:    7106741  MISS:     886908  HIT %:    88.9048  MISS %:    11.0952   MPKI: 17.7382
AGUS PREFETCH L1 MISS: 0
L1D PREFETCH  REQUESTED:   18162724  ISSUED:   16478890  USEFUL:     531362  USELESS:     355600
L1D USEFUL LOAD PREFETCHES:     531362 PREFETCH ISSUED TO LOWER LEVEL:     895513  ACCURACY: 59.336
L1D TIMELY PREFETCHES:     531362 LATE PREFETCHES: 6761 DROPPED PREFETCHES: 0
L1D PREFETCHES SAME FILL-ORIGIN LEVEL: 895513 DIFFERENT FILL-ORIGIN LEVEL: 0
L1D AVERAGE MISS LATENCY: 154.949 cycles
L1D RQ	ACCESS:   14077439	FORWARD:          0	MERGED:    4054939	TO_CACHE:    9572762
L1D WQ	ACCESS:    8476021	FORWARD:     450918	MERGED:     185411	TO_CACHE:    8290610
L1D PQ	ACCESS:    8374038	FORWARD:          0	MERGED:     268006	TO_CACHE:    8104852

L1D UNIQUE REGIONS ACCESSED: 0
L1D REGIONS CONFLICTS: 0
L1D Cross Page Prefetch Requests: 12099176
L1D Same Page Prefetch Requests: 2588790
L1D ROI Sum of L1D PQ occupancy: 174487510
L1D PREFETCHES PUSHED FROM L2C: 0
L1I TOTAL     ACCESS:    9807974  HIT:    9806433  MISS:       1541  HIT %:    99.9843  MISS %:  0.0157117   MPKI: 0.03082
L1I LOAD      ACCESS:    9807974  HIT:    9806433  MISS:       1541  HIT %:    99.9843  MISS %:  0.0157117   MPKI: 0.03082
L1I PREFETCH  REQUESTED:          0  ISSUED:          0  USEFUL:          0  USELESS:          0
L1I USEFUL LOAD PREFETCHES:          0 PREFETCH ISSUED TO LOWER LEVEL:          0  ACCURACY: -nan
L1I TIMELY PREFETCHES:          0 LATE PREFETCHES: 0 DROPPED PREFETCHES: 0
L1I PREFETCHES SAME FILL-ORIGIN LEVEL: 0 DIFFERENT FILL-ORIGIN LEVEL: 0
L1I AVERAGE MISS LATENCY: 157.34 cycles
L1I RQ	ACCESS:   14765487	FORWARD:          0	MERGED:    4957215	TO_CACHE:    9808272

BTB TOTAL     ACCESS:   10008119  HIT:    9487971  MISS:     520148  HIT %:    94.8027  MISS %:    5.19726   MPKI: 10.403
BTB BRANCH_DIRECT_JUMP	ACCESS:     964405  HIT:     964243  MISS:        162
BTB BRANCH_INDIRECT	ACCESS:     140341  HIT:     116325  MISS:      24016
BTB BRANCH_CONDITIONAL	ACCESS:    5906166  HIT:    5905777  MISS:        389
BTB BRANCH_DIRECT_CALL	ACCESS:    1294152  HIT:    1293861  MISS:        291
BTB BRANCH_INDIRECT_CALL	ACCESS:     204449  HIT:     203146  MISS:       1303
BTB BRANCH_RETURN	ACCESS:    1498606  HIT:    1004619  MISS:     493987
BTB BRANCH_OTHER ACCESS:          0  HIT:          0  MISS:          0

L2C TOTAL     ACCESS:    2457470  HIT:    1080170  MISS:    1377300  HIT %:    43.9546  MISS %:    56.0454   MPKI: 27.546
L2C LOAD      ACCESS:     531111  HIT:     128354  MISS:     402757  HIT %:    24.1671  MISS %:    75.8329   MPKI: 8.05514
L2C DATA LOAD MPKI: 8.0285
L2C INSTRUCTION LOAD MPKI: 0.02664
L2C RFO       ACCESS:     136260  HIT:      11609  MISS:     124651  HIT %:    8.51974  MISS %:    91.4803   MPKI: 2.49302
L2C PREFETCH  ACCESS:     895477  HIT:     177655  MISS:     717822  HIT %:    19.8391  MISS %:    80.1609   MPKI: 14.3564
AGUS PREFETCH L1 MISS: 0
L2C DATA PREFETCH MPKI: 14.3564
L2C INSTRUCTION PREFETCH MPKI: 0
L2C WRITEBACK ACCESS:     503754  HIT:     502280  MISS:       1474  HIT %:    99.7074  MISS %:   0.292603   MPKI: 0.02948
L2C LOAD TRANSLATION ACCESS:     108906  HIT:      75085  MISS:      33821  HIT %:    68.9448  MISS %:    31.0552   MPKI: 0.67642
L2C TRANSLATION FROM L1D PREFETCHER ACCESS:     281962  HIT:     185187  MISS:      96775  HIT %:     65.678  MISS %:     34.322   MPKI: 1.9355
L2C PREFETCH  REQUESTED:          0  ISSUED:          0  USEFUL:      89440  USELESS:     724776
L2C USEFUL LOAD PREFETCHES:      89440 PREFETCH ISSUED TO LOWER LEVEL:     717823  ACCURACY: 12.4599
L2C TIMELY PREFETCHES:      89440 LATE PREFETCHES: 0 DROPPED PREFETCHES: 0
L2C PREFETCHES SAME FILL-ORIGIN LEVEL: 0 DIFFERENT FILL-ORIGIN LEVEL: 0
L2C AVERAGE MISS LATENCY: 166.53 cycles
L2C RQ	ACCESS:    1058265	FORWARD:          0	MERGED:          0	TO_CACHE:    1058239
L2C WQ	ACCESS:     503754	FORWARD:         61	MERGED:          0	TO_CACHE:     503754
L2C PQ	ACCESS:     895513	FORWARD:          0	MERGED:          0	TO_CACHE:     895478

L2C Instructions Evicting Data 1202
L2C Translations Evicting Data 117479
L2C Data Evicting Data 1124617
L2C Instructions Evicting Instructions 8
L2C Translations Evicting Instructions 124
L2C Data Evicting Instructions 1200
L2C Instructions Evicting Translations 122
L2C Translations Evicting Translations 12993
L2C Data Evicting Translations 118081
L2C Dense regions hint from L2: 0
PSCL5 TOTAL     ACCESS:     351485  HIT:     351485  MISS:          0  HIT %:        100  MISS %:          0   MPKI: 0
PSCL5 LOAD TRANSLATION ACCESS:      98584  HIT:      98584  MISS:          0  HIT %:        100  MISS %:          0   MPKI: 0
PSCL5 TRANSLATION FROM L1D PREFETCHER ACCESS:     252901  HIT:     252901  MISS:          0  HIT %:        100  MISS %:          0   MPKI: 0
PSCL5 PREFETCH  REQUESTED:          0  ISSUED:          0  USEFUL:          0  USELESS:          0
PSCL5 USEFUL LOAD PREFETCHES:          0 PREFETCH ISSUED TO LOWER LEVEL:          0  ACCURACY: -nan
PSCL5 TIMELY PREFETCHES:          0 LATE PREFETCHES: 0 DROPPED PREFETCHES: 0
PSCL5 PREFETCHES SAME FILL-ORIGIN LEVEL: 0 DIFFERENT FILL-ORIGIN LEVEL: 0

PSCL4 TOTAL     ACCESS:     351485  HIT:     351485  MISS:          0  HIT %:        100  MISS %:          0   MPKI: 0
PSCL4 LOAD TRANSLATION ACCESS:      98584  HIT:      98584  MISS:          0  HIT %:        100  MISS %:          0   MPKI: 0
PSCL4 TRANSLATION FROM L1D PREFETCHER ACCESS:     252901  HIT:     252901  MISS:          0  HIT %:        100  MISS %:          0   MPKI: 0
PSCL4 PREFETCH  REQUESTED:          0  ISSUED:          0  USEFUL:          0  USELESS:          0
PSCL4 USEFUL LOAD PREFETCHES:          0 PREFETCH ISSUED TO LOWER LEVEL:          0  ACCURACY: -nan
PSCL4 TIMELY PREFETCHES:          0 LATE PREFETCHES: 0 DROPPED PREFETCHES: 0
PSCL4 PREFETCHES SAME FILL-ORIGIN LEVEL: 0 DIFFERENT FILL-ORIGIN LEVEL: 0

PSCL3 TOTAL     ACCESS:     351485  HIT:     351485  MISS:          0  HIT %:        100  MISS %:          0   MPKI: 0
PSCL3 LOAD TRANSLATION ACCESS:      98584  HIT:      98584  MISS:          0  HIT %:        100  MISS %:          0   MPKI: 0
PSCL3 TRANSLATION FROM L1D PREFETCHER ACCESS:     252901  HIT:     252901  MISS:          0  HIT %:        100  MISS %:          0   MPKI: 0
PSCL3 PREFETCH  REQUESTED:          0  ISSUED:          0  USEFUL:          0  USELESS:          0
PSCL3 USEFUL LOAD PREFETCHES:          0 PREFETCH ISSUED TO LOWER LEVEL:          0  ACCURACY: -nan
PSCL3 TIMELY PREFETCHES:          0 LATE PREFETCHES: 0 DROPPED PREFETCHES: 0
PSCL3 PREFETCHES SAME FILL-ORIGIN LEVEL: 0 DIFFERENT FILL-ORIGIN LEVEL: 0

PSCL2 TOTAL     ACCESS:     351485  HIT:     312101  MISS:      39384  HIT %:     88.795  MISS %:     11.205   MPKI: 0.78768
PSCL2 LOAD TRANSLATION ACCESS:     127645  HIT:      88261  MISS:      39384  HIT %:    69.1457  MISS %:    30.8543   MPKI: 0.78768
PSCL2 TRANSLATION FROM L1D PREFETCHER ACCESS:     223840  HIT:     223840  MISS:          0  HIT %:        100  MISS %:          0   MPKI: 0
PSCL2 PREFETCH  REQUESTED:          0  ISSUED:          0  USEFUL:          0  USELESS:          0
PSCL2 USEFUL LOAD PREFETCHES:          0 PREFETCH ISSUED TO LOWER LEVEL:          0  ACCURACY: -nan
PSCL2 TIMELY PREFETCHES:          0 LATE PREFETCHES: 0 DROPPED PREFETCHES: 0
PSCL2 PREFETCHES SAME FILL-ORIGIN LEVEL: 0 DIFFERENT FILL-ORIGIN LEVEL: 0

LLC TOTAL     ACCESS:    1819837  HIT:     804251  MISS:    1015586  HIT %:    44.1936  MISS %:    55.8064   MPKI: 20.3117
LLC LOAD      ACCESS:     402755  HIT:      90678  MISS:     312077  HIT %:    22.5144  MISS %:    77.4856   MPKI: 6.24154
LLC RFO       ACCESS:     124651  HIT:      18042  MISS:     106609  HIT %:     14.474  MISS %:     85.526   MPKI: 2.13218
LLC PREFETCH  ACCESS:     717821  HIT:     159000  MISS:     558821  HIT %:    22.1504  MISS %:    77.8496   MPKI: 11.1764
AGUS PREFETCH L1 MISS: 0
LLC WRITEBACK ACCESS:     444014  HIT:     443188  MISS:        826  HIT %:     99.814  MISS %:    0.18603   MPKI: 0.01652
LLC LOAD TRANSLATION ACCESS:      33821  HIT:      26560  MISS:       7261  HIT %:    78.5311  MISS %:    21.4689   MPKI: 0.14522
LLC TRANSLATION FROM L1D PREFETCHER ACCESS:      96775  HIT:      66783  MISS:      29992  HIT %:    69.0085  MISS %:    30.9915   MPKI: 0.59984
LLC PREFETCH  REQUESTED:          0  ISSUED:          0  USEFUL:      46017  USELESS:     540780
LLC USEFUL LOAD PREFETCHES:      46017 PREFETCH ISSUED TO LOWER LEVEL:     558822  ACCURACY: 8.23464
LLC TIMELY PREFETCHES:      46017 LATE PREFETCHES: 0 DROPPED PREFETCHES: 0
LLC PREFETCHES SAME FILL-ORIGIN LEVEL: 0 DIFFERENT FILL-ORIGIN LEVEL: 0
LLC AVERAGE MISS LATENCY: 185.164 cycles
LLC RQ	ACCESS:     658004	FORWARD:          0	MERGED:          0	TO_CACHE:     658002
LLC WQ	ACCESS:     444014	FORWARD:          3	MERGED:          0	TO_CACHE:     444014
LLC PQ	ACCESS:     717823	FORWARD:          0	MERGED:          0	TO_CACHE:     717822

LLC Dense regions hint to LLC: 0

RAW hits: 797993
Loads Generated: 14875432
Loads sent to L1D: 14077439
Stores Generated: 8476007
Stores sent to L1D: 8476021
Major fault: 0 Minor fault: 33441
Allocated PAGES: 33441
Prefetcher final stats
Training Unit Size: 1510
Addr table size: 385973 396524


Triggers: 16278202
No Prediction: 3674939 22.5758
Stream end: 11655621
No translation: 290716427 1785.92
Predictions: 14687966 90.2309


Stream divergence: 1393412 8.55999
Stream divergence -- new stream: 0

DRAM Statistics
 CHANNEL 0
 RQ ROW_BUFFER_HIT:      90798  ROW_BUFFER_MISS:     923948
 DBUS_CONGESTED:        274
 WQ ROW_BUFFER_HIT:      65613  ROW_BUFFER_MISS:     304957  FULL:          0

 AVG_CONGESTED_CYCLE: 4
 All warmup complete: 2
Channel 0 Bank busy for read cycles: 0
Channel 0 Bank busy for write cycles: 0
Channel 0
Rank 0
0banks busy for read cycles: 61987653
0banks busy for write cycles: 110342
1banks busy for read cycles: 38773050
1banks busy for write cycles: 14642649
2banks busy for read cycles: 19263927
2banks busy for write cycles: 7750109
3banks busy for read cycles: 9411495
3banks busy for write cycles: 4598155
4banks busy for read cycles: 4602126
4banks busy for write cycles: 2839306
5banks busy for read cycles: 2219651
5banks busy for write cycles: 1671315
6banks busy for read cycles: 925138
6banks busy for write cycles: 993677
7banks busy for read cycles: 276977
7banks busy for write cycles: 499579
8banks busy for read cycles: 75284
8banks busy for write cycles: 212280

CPU 0 Branch Prediction Accuracy: 94.0755% MPKI: 14.2353 Average ROB Occupancy at Mispredict: 25.4844
Branch types
NOT_BRANCH: 37985796 75.9716%
BRANCH_DIRECT_JUMP: 964405 1.92881%
BRANCH_INDIRECT: 140341 0.280682%
BRANCH_CONDITIONAL: 7911981 15.824%
BRANCH_DIRECT_CALL: 1294152 2.5883%
BRANCH_INDIRECT_CALL: 204449 0.408898%
BRANCH_RETURN: 1498606 2.99721%
BRANCH_OTHER: 0 0%

DRAM PAGES: 1048576
Allocated PAGES: 33441
