
*** ChampSim Multicore Out-of-Order Simulator ***

Warmup Instructions: 50000000
Simulation Instructions: 50000000
Number of CPUs: 1
LLC sets: 2048
LLC ways: 16
Off-chip DRAM Size: 4096 MB Channels: 1 Width: 64-bit Data Rate: 6400 MT/s
CPU 0 runs traces/SPEC-CPU2017/471.omnetpp-188B.champsimtrace.xz
.xz
CPU 0 Bimodal branch predictor
BTB has LRU replacement policy
ITLB has LRU replacement policy
DTLB has LRU replacement policy
STLB has LRU replacement policy
L1I has LRU replacement policy
Ideal ISB Prefetching
L1D has LRU replacement policy
L2C has LRU replacement policy
LLC has LRU replacement policy
Heartbeat CPU 0 instructions: 10000001 cycles: 3274793 heartbeat IPC: 3.05363 cumulative IPC: 3.05363 (Simulation time: 0 hr 1 min 0 sec) 
Heartbeat CPU 0 instructions: 20000000 cycles: 6505581 heartbeat IPC: 3.09522 cumulative IPC: 3.07428 (Simulation time: 0 hr 2 min 6 sec) 
Heartbeat CPU 0 instructions: 30000000 cycles: 9750930 heartbeat IPC: 3.08133 cumulative IPC: 3.07663 (Simulation time: 0 hr 3 min 23 sec) 
Heartbeat CPU 0 instructions: 40000000 cycles: 12990029 heartbeat IPC: 3.08728 cumulative IPC: 3.07928 (Simulation time: 0 hr 4 min 44 sec) 
Heartbeat CPU 0 instructions: 50000003 cycles: 16209344 heartbeat IPC: 3.10625 cumulative IPC: 3.08464 (Simulation time: 0 hr 6 min 8 sec) 

Warmup complete CPU 0 instructions: 50000003 cycles: 16209344 (Simulation time: 0 hr 6 min 8 sec) 

Heartbeat CPU 0 instructions: 60000000 cycles: 50006540 heartbeat IPC: 0.295882 cumulative IPC: 0.295882 (Simulation time: 0 hr 7 min 43 sec) 
Heartbeat CPU 0 instructions: 70000001 cycles: 82073571 heartbeat IPC: 0.311847 cumulative IPC: 0.303655 (Simulation time: 0 hr 9 min 28 sec) 
Heartbeat CPU 0 instructions: 80000000 cycles: 113616458 heartbeat IPC: 0.317029 cumulative IPC: 0.307986 (Simulation time: 0 hr 11 min 18 sec) 
Heartbeat CPU 0 instructions: 90000003 cycles: 145095737 heartbeat IPC: 0.317669 cumulative IPC: 0.310351 (Simulation time: 0 hr 13 min 8 sec) 
Heartbeat CPU 0 instructions: 100000000 cycles: 177326160 heartbeat IPC: 0.310266 cumulative IPC: 0.310334 (Simulation time: 0 hr 15 min 5 sec) 
Finished CPU 0 instructions: 50000000 cycles: 161116825 cumulative IPC: 0.310334 (Simulation time: 0 hr 15 min 5 sec) 

ChampSim completed all CPUs

Region of Interest Statistics

CPU 0 cumulative IPC: 0.310334 instructions: 50000000 cycles: 161116825
ITLB TOTAL     ACCESS:    8714771  HIT:    8697568  MISS:      17203  HIT %:    99.8026  MISS %:     0.1974   MPKI: 0.34406
ITLB LOAD TRANSLATION ACCESS:    8714771  HIT:    8697568  MISS:      17203  HIT %:    99.8026  MISS %:     0.1974   MPKI: 0.34406
ITLB PREFETCH  REQUESTED:          0  ISSUED:          0  USEFUL:          0  USELESS:          0
ITLB USEFUL LOAD PREFETCHES:          0 PREFETCH ISSUED TO LOWER LEVEL:          0  ACCURACY: -nan
ITLB TIMELY PREFETCHES:          0 LATE PREFETCHES: 0 DROPPED PREFETCHES: 0
ITLB PREFETCHES SAME FILL-ORIGIN LEVEL: 0 DIFFERENT FILL-ORIGIN LEVEL: 0
ITLB AVERAGE MISS LATENCY: 12.3047 cycles
ITLB RQ	ACCESS:    9802816	FORWARD:          0	MERGED:    1080427	TO_CACHE:    8722389

DTLB TOTAL     ACCESS:   14716371  HIT:   13758613  MISS:     957758  HIT %:    93.4919  MISS %:    6.50811   MPKI: 19.1552
DTLB LOAD TRANSLATION ACCESS:   14716371  HIT:   13758613  MISS:     957758  HIT %:    93.4919  MISS %:    6.50811   MPKI: 19.1552
DTLB PREFETCH  REQUESTED:          0  ISSUED:          0  USEFUL:          0  USELESS:          0
DTLB USEFUL LOAD PREFETCHES:          0 PREFETCH ISSUED TO LOWER LEVEL:          0  ACCURACY: -nan
DTLB TIMELY PREFETCHES:          0 LATE PREFETCHES: 0 DROPPED PREFETCHES: 0
DTLB PREFETCHES SAME FILL-ORIGIN LEVEL: 0 DIFFERENT FILL-ORIGIN LEVEL: 0
DTLB AVERAGE MISS LATENCY: 15.8641 cycles
DTLB RQ	ACCESS:   17874545	FORWARD:          0	MERGED:    3113514	TO_CACHE:   14761031

STLB TOTAL     ACCESS:    2225096  HIT:    1817761  MISS:     407335  HIT %:    81.6936  MISS %:    18.3064   MPKI: 8.1467
STLB LOAD TRANSLATION ACCESS:     974961  HIT:     877664  MISS:      97297  HIT %:    90.0204  MISS %:    9.97958   MPKI: 1.94594
STLB TRANSLATION FROM L1D PREFETCHER ACCESS:    1250135  HIT:     940097  MISS:     310038  HIT %:    75.1996  MISS %:    24.8004   MPKI: 6.20076
STLB PREFETCH  REQUESTED:          0  ISSUED:          0  USEFUL:     192950  USELESS:     116852
STLB USEFUL LOAD PREFETCHES:     192950 PREFETCH ISSUED TO LOWER LEVEL:          0  ACCURACY: inf
STLB TIMELY PREFETCHES:     192950 LATE PREFETCHES: 455 DROPPED PREFETCHES: 0
STLB PREFETCHES SAME FILL-ORIGIN LEVEL: 0 DIFFERENT FILL-ORIGIN LEVEL: 0
STLB AVERAGE MISS LATENCY: 106.601 cycles
STLB RQ	ACCESS:    2359824	FORWARD:          0	MERGED:     132886	TO_CACHE:    2226938

STLB Hit, L1D data hit: 0
STLB Hit, L2C data hit: 0
STLB Hit, LLC data hit: 0
STLB Hit, LLC data miss: 0
STLB STLB hints to L2: 0
L1D TOTAL     ACCESS:   18788237  HIT:   16938859  MISS:    1849378  HIT %:    90.1567  MISS %:    9.84328   MPKI: 36.9876
L1D LOAD      ACCESS:    9522495  HIT:    8987941  MISS:     534554  HIT %:    94.3864  MISS %:    5.61359   MPKI: 10.6911
L1D RFO       ACCESS:    7903824  HIT:    7744155  MISS:     159669  HIT %:    97.9799  MISS %:    2.02015   MPKI: 3.19338
L1D PREFETCH  ACCESS:    1361918  HIT:     206763  MISS:    1155155  HIT %:    15.1818  MISS %:    84.8182   MPKI: 23.1031
AGUS PREFETCH L1 MISS: 0
L1D PREFETCH  REQUESTED:    2942364  ISSUED:    2777561  USEFUL:     526067  USELESS:     629212
L1D USEFUL LOAD PREFETCHES:     526067 PREFETCH ISSUED TO LOWER LEVEL:    1160952  ACCURACY: 45.3134
L1D TIMELY PREFETCHES:     526067 LATE PREFETCHES: 5575 DROPPED PREFETCHES: 0
L1D PREFETCHES SAME FILL-ORIGIN LEVEL: 1160952 DIFFERENT FILL-ORIGIN LEVEL: 0
L1D AVERAGE MISS LATENCY: 144.114 cycles
L1D RQ	ACCESS:   14104346	FORWARD:          0	MERGED:    4059444	TO_CACHE:    9581083
L1D WQ	ACCESS:    8476021	FORWARD:     463826	MERGED:     182559	TO_CACHE:    8293462
L1D PQ	ACCESS:    1392698	FORWARD:          0	MERGED:       7828	TO_CACHE:    1384863

L1D UNIQUE REGIONS ACCESSED: 0
L1D REGIONS CONFLICTS: 0
L1D Cross Page Prefetch Requests: 2405255
L1D Same Page Prefetch Requests: 85070
L1D ROI Sum of L1D PQ occupancy: 74621092
L1D PREFETCHES PUSHED FROM L2C: 0
L1I TOTAL     ACCESS:    9802514  HIT:    9800973  MISS:       1541  HIT %:    99.9843  MISS %:  0.0157205   MPKI: 0.03082
L1I LOAD      ACCESS:    9802514  HIT:    9800973  MISS:       1541  HIT %:    99.9843  MISS %:  0.0157205   MPKI: 0.03082
L1I PREFETCH  REQUESTED:          0  ISSUED:          0  USEFUL:          0  USELESS:          0
L1I USEFUL LOAD PREFETCHES:          0 PREFETCH ISSUED TO LOWER LEVEL:          0  ACCURACY: -nan
L1I TIMELY PREFETCHES:          0 LATE PREFETCHES: 0 DROPPED PREFETCHES: 0
L1I PREFETCHES SAME FILL-ORIGIN LEVEL: 0 DIFFERENT FILL-ORIGIN LEVEL: 0
L1I AVERAGE MISS LATENCY: 158.914 cycles
L1I RQ	ACCESS:   14754955	FORWARD:          0	MERGED:    4952139	TO_CACHE:    9802816

BTB TOTAL     ACCESS:   10008119  HIT:    9487971  MISS:     520148  HIT %:    94.8027  MISS %:    5.19726   MPKI: 10.403
BTB BRANCH_DIRECT_JUMP	ACCESS:     964405  HIT:     964243  MISS:        162
BTB BRANCH_INDIRECT	ACCESS:     140341  HIT:     116325  MISS:      24016
BTB BRANCH_CONDITIONAL	ACCESS:    5906166  HIT:    5905777  MISS:        389
BTB BRANCH_DIRECT_CALL	ACCESS:    1294152  HIT:    1293861  MISS:        291
BTB BRANCH_INDIRECT_CALL	ACCESS:     204449  HIT:     203146  MISS:       1303
BTB BRANCH_RETURN	ACCESS:    1498606  HIT:    1004619  MISS:     493987
BTB BRANCH_OTHER ACCESS:          0  HIT:          0  MISS:          0

L2C TOTAL     ACCESS:    2807815  HIT:    1361040  MISS:    1446775  HIT %:    48.4733  MISS %:    51.5267   MPKI: 28.9355
L2C LOAD      ACCESS:     530481  HIT:     209185  MISS:     321296  HIT %:    39.4331  MISS %:    60.5669   MPKI: 6.42592
L2C DATA LOAD MPKI: 6.39904
L2C INSTRUCTION LOAD MPKI: 0.02688
L2C RFO       ACCESS:     159445  HIT:      17396  MISS:     142049  HIT %:    10.9103  MISS %:    89.0897   MPKI: 2.84098
L2C PREFETCH  ACCESS:    1160940  HIT:     322434  MISS:     838506  HIT %:    27.7735  MISS %:    72.2265   MPKI: 16.7701
AGUS PREFETCH L1 MISS: 0
L2C DATA PREFETCH MPKI: 16.7701
L2C INSTRUCTION PREFETCH MPKI: 0
L2C WRITEBACK ACCESS:     508608  HIT:     507183  MISS:       1425  HIT %:    99.7198  MISS %:   0.280176   MPKI: 0.0285
L2C LOAD TRANSLATION ACCESS:     105818  HIT:      76127  MISS:      29691  HIT %:    71.9414  MISS %:    28.0586   MPKI: 0.59382
L2C TRANSLATION FROM L1D PREFETCHER ACCESS:     342523  HIT:     228715  MISS:     113808  HIT %:    66.7736  MISS %:    33.2264   MPKI: 2.27616
L2C PREFETCH  REQUESTED:          0  ISSUED:          0  USEFUL:     167023  USELESS:     785327
L2C USEFUL LOAD PREFETCHES:     167023 PREFETCH ISSUED TO LOWER LEVEL:     838506  ACCURACY: 19.9191
L2C TIMELY PREFETCHES:     167023 LATE PREFETCHES: 0 DROPPED PREFETCHES: 0
L2C PREFETCHES SAME FILL-ORIGIN LEVEL: 0 DIFFERENT FILL-ORIGIN LEVEL: 0
L2C AVERAGE MISS LATENCY: 172.235 cycles
L2C RQ	ACCESS:    1138308	FORWARD:          0	MERGED:          0	TO_CACHE:    1138267
L2C WQ	ACCESS:     508608	FORWARD:         53	MERGED:          0	TO_CACHE:     508608
L2C PQ	ACCESS:    1160952	FORWARD:          0	MERGED:          0	TO_CACHE:    1160940

L2C Instructions Evicting Data 1213
L2C Translations Evicting Data 128744
L2C Data Evicting Data 1170127
L2C Instructions Evicting Instructions 5
L2C Translations Evicting Instructions 118
L2C Data Evicting Instructions 1221
L2C Instructions Evicting Translations 126
L2C Translations Evicting Translations 14637
L2C Data Evicting Translations 129159
L2C Dense regions hint from L2: 0
PSCL5 TOTAL     ACCESS:     407335  HIT:     407335  MISS:          0  HIT %:        100  MISS %:          0   MPKI: 0
PSCL5 LOAD TRANSLATION ACCESS:      96842  HIT:      96842  MISS:          0  HIT %:        100  MISS %:          0   MPKI: 0
PSCL5 TRANSLATION FROM L1D PREFETCHER ACCESS:     310493  HIT:     310493  MISS:          0  HIT %:        100  MISS %:          0   MPKI: 0
PSCL5 PREFETCH  REQUESTED:          0  ISSUED:          0  USEFUL:          0  USELESS:          0
PSCL5 USEFUL LOAD PREFETCHES:          0 PREFETCH ISSUED TO LOWER LEVEL:          0  ACCURACY: -nan
PSCL5 TIMELY PREFETCHES:          0 LATE PREFETCHES: 0 DROPPED PREFETCHES: 0
PSCL5 PREFETCHES SAME FILL-ORIGIN LEVEL: 0 DIFFERENT FILL-ORIGIN LEVEL: 0

PSCL4 TOTAL     ACCESS:     407335  HIT:     407335  MISS:          0  HIT %:        100  MISS %:          0   MPKI: 0
PSCL4 LOAD TRANSLATION ACCESS:      96842  HIT:      96842  MISS:          0  HIT %:        100  MISS %:          0   MPKI: 0
PSCL4 TRANSLATION FROM L1D PREFETCHER ACCESS:     310493  HIT:     310493  MISS:          0  HIT %:        100  MISS %:          0   MPKI: 0
PSCL4 PREFETCH  REQUESTED:          0  ISSUED:          0  USEFUL:          0  USELESS:          0
PSCL4 USEFUL LOAD PREFETCHES:          0 PREFETCH ISSUED TO LOWER LEVEL:          0  ACCURACY: -nan
PSCL4 TIMELY PREFETCHES:          0 LATE PREFETCHES: 0 DROPPED PREFETCHES: 0
PSCL4 PREFETCHES SAME FILL-ORIGIN LEVEL: 0 DIFFERENT FILL-ORIGIN LEVEL: 0

PSCL3 TOTAL     ACCESS:     407335  HIT:     407335  MISS:          0  HIT %:        100  MISS %:          0   MPKI: 0
PSCL3 LOAD TRANSLATION ACCESS:      96842  HIT:      96842  MISS:          0  HIT %:        100  MISS %:          0   MPKI: 0
PSCL3 TRANSLATION FROM L1D PREFETCHER ACCESS:     310493  HIT:     310493  MISS:          0  HIT %:        100  MISS %:          0   MPKI: 0
PSCL3 PREFETCH  REQUESTED:          0  ISSUED:          0  USEFUL:          0  USELESS:          0
PSCL3 USEFUL LOAD PREFETCHES:          0 PREFETCH ISSUED TO LOWER LEVEL:          0  ACCURACY: -nan
PSCL3 TIMELY PREFETCHES:          0 LATE PREFETCHES: 0 DROPPED PREFETCHES: 0
PSCL3 PREFETCHES SAME FILL-ORIGIN LEVEL: 0 DIFFERENT FILL-ORIGIN LEVEL: 0

PSCL2 TOTAL     ACCESS:     407335  HIT:     366328  MISS:      41007  HIT %:    89.9329  MISS %:    10.0671   MPKI: 0.82014
PSCL2 LOAD TRANSLATION ACCESS:     128872  HIT:      87865  MISS:      41007  HIT %:    68.1801  MISS %:    31.8199   MPKI: 0.82014
PSCL2 TRANSLATION FROM L1D PREFETCHER ACCESS:     278463  HIT:     278463  MISS:          0  HIT %:        100  MISS %:          0   MPKI: 0
PSCL2 PREFETCH  REQUESTED:          0  ISSUED:          0  USEFUL:          0  USELESS:          0
PSCL2 USEFUL LOAD PREFETCHES:          0 PREFETCH ISSUED TO LOWER LEVEL:          0  ACCURACY: -nan
PSCL2 TIMELY PREFETCHES:          0 LATE PREFETCHES: 0 DROPPED PREFETCHES: 0
PSCL2 PREFETCHES SAME FILL-ORIGIN LEVEL: 0 DIFFERENT FILL-ORIGIN LEVEL: 0

LLC TOTAL     ACCESS:    1891422  HIT:     856068  MISS:    1035354  HIT %:    45.2605  MISS %:    54.7395   MPKI: 20.7071
LLC LOAD      ACCESS:     321296  HIT:      84760  MISS:     236536  HIT %:    26.3807  MISS %:    73.6193   MPKI: 4.73072
LLC RFO       ACCESS:     142049  HIT:      21446  MISS:     120603  HIT %:    15.0976  MISS %:    84.9024   MPKI: 2.41206
LLC PREFETCH  ACCESS:     838506  HIT:     195170  MISS:     643336  HIT %:    23.2759  MISS %:    76.7241   MPKI: 12.8667
AGUS PREFETCH L1 MISS: 0
LLC WRITEBACK ACCESS:     446072  HIT:     445176  MISS:        896  HIT %:    99.7991  MISS %:   0.200864   MPKI: 0.01792
LLC LOAD TRANSLATION ACCESS:      29691  HIT:      24231  MISS:       5460  HIT %:    81.6106  MISS %:    18.3894   MPKI: 0.1092
LLC TRANSLATION FROM L1D PREFETCHER ACCESS:     113808  HIT:      85285  MISS:      28523  HIT %:    74.9376  MISS %:    25.0624   MPKI: 0.57046
LLC PREFETCH  REQUESTED:          0  ISSUED:          0  USEFUL:      42994  USELESS:     627279
LLC USEFUL LOAD PREFETCHES:      42994 PREFETCH ISSUED TO LOWER LEVEL:     643336  ACCURACY: 6.68298
LLC TIMELY PREFETCHES:      42994 LATE PREFETCHES: 0 DROPPED PREFETCHES: 0
LLC PREFETCHES SAME FILL-ORIGIN LEVEL: 0 DIFFERENT FILL-ORIGIN LEVEL: 0
LLC AVERAGE MISS LATENCY: 198.757 cycles
LLC RQ	ACCESS:     606844	FORWARD:          0	MERGED:          0	TO_CACHE:     606844
LLC WQ	ACCESS:     446072	FORWARD:          0	MERGED:          0	TO_CACHE:     446072
LLC PQ	ACCESS:     838506	FORWARD:          0	MERGED:          0	TO_CACHE:     838506

LLC Dense regions hint to LLC: 0

RAW hits: 771089
Loads Generated: 14875435
Loads sent to L1D: 14104346
Stores Generated: 8476009
Stores sent to L1D: 8476021
Major fault: 0 Minor fault: 33441
Allocated PAGES: 33441
Prefetcher final stats
Training Unit Size: 519
Addr table size: 385225 385250


Triggers: 1219013
No Prediction: 466353 38.2566
Stream end: 483281
No translation: 1972825068 161838
Predictions: 2490325 204.29


Stream divergence: 238614 19.5744
Stream divergence -- new stream: 0

DRAM Statistics
 CHANNEL 0
 RQ ROW_BUFFER_HIT:     118703  ROW_BUFFER_MISS:     915742
 DBUS_CONGESTED:        136
 WQ ROW_BUFFER_HIT:      46363  ROW_BUFFER_MISS:     324944  FULL:          0

 AVG_CONGESTED_CYCLE: 4
 All warmup complete: 2
Channel 0 Bank busy for read cycles: 0
Channel 0 Bank busy for write cycles: 0
Channel 0
Rank 0
0banks busy for read cycles: 65761181
0banks busy for write cycles: 100792
1banks busy for read cycles: 30526213
1banks busy for write cycles: 12464933
2banks busy for read cycles: 15308823
2banks busy for write cycles: 6475273
3banks busy for read cycles: 8301575
3banks busy for write cycles: 4018992
4banks busy for read cycles: 5281021
4banks busy for write cycles: 2678076
5banks busy for read cycles: 3571804
5banks busy for write cycles: 1757278
6banks busy for read cycles: 2025371
6banks busy for write cycles: 1084066
7banks busy for read cycles: 706548
7banks busy for write cycles: 620278
8banks busy for read cycles: 146236
8banks busy for write cycles: 288366

CPU 0 Branch Prediction Accuracy: 94.0755% MPKI: 14.2353 Average ROB Occupancy at Mispredict: 25.1838
Branch types
NOT_BRANCH: 37985796 75.9716%
BRANCH_DIRECT_JUMP: 964405 1.92881%
BRANCH_INDIRECT: 140341 0.280682%
BRANCH_CONDITIONAL: 7911981 15.824%
BRANCH_DIRECT_CALL: 1294152 2.5883%
BRANCH_INDIRECT_CALL: 204449 0.408898%
BRANCH_RETURN: 1498606 2.99721%
BRANCH_OTHER: 0 0%

DRAM PAGES: 1048576
Allocated PAGES: 33441
