
*** ChampSim Multicore Out-of-Order Simulator ***

Warmup Instructions: 50000000
Simulation Instructions: 50000000
Number of CPUs: 1
LLC sets: 2048
LLC ways: 16
Off-chip DRAM Size: 4096 MB Channels: 1 Width: 64-bit Data Rate: 6400 MT/s
CPU 0 runs traces/SPEC-CPU2017/471.omnetpp-188B.champsimtrace.xz
.xz
CPU 0 Bimodal branch predictor
BTB has LRU replacement policy
ITLB has LRU replacement policy
DTLB has LRU replacement policy
STLB has LRU replacement policy
L1I has LRU replacement policy
Ideal ISB Prefetching
L1D has LRU replacement policy
L2C has LRU replacement policy
LLC has LRU replacement policy
Heartbeat CPU 0 instructions: 10000001 cycles: 3295603 heartbeat IPC: 3.03435 cumulative IPC: 3.03435 (Simulation time: 0 hr 4 min 32 sec) 
Heartbeat CPU 0 instructions: 20000000 cycles: 6547405 heartbeat IPC: 3.07522 cumulative IPC: 3.05465 (Simulation time: 0 hr 9 min 42 sec) 
Heartbeat CPU 0 instructions: 30000002 cycles: 9826035 heartbeat IPC: 3.05006 cumulative IPC: 3.05311 (Simulation time: 0 hr 14 min 49 sec) 
Heartbeat CPU 0 instructions: 40000000 cycles: 13091233 heartbeat IPC: 3.0626 cumulative IPC: 3.05548 (Simulation time: 0 hr 20 min 13 sec) 
Heartbeat CPU 0 instructions: 50000000 cycles: 16343280 heartbeat IPC: 3.07499 cumulative IPC: 3.05936 (Simulation time: 0 hr 25 min 17 sec) 

Warmup complete CPU 0 instructions: 50000004 cycles: 16343281 (Simulation time: 0 hr 25 min 17 sec) 

Heartbeat CPU 0 instructions: 60000000 cycles: 51795669 heartbeat IPC: 0.282068 cumulative IPC: 0.282068 (Simulation time: 0 hr 31 min 21 sec) 
Heartbeat CPU 0 instructions: 70000001 cycles: 85514628 heartbeat IPC: 0.296569 cumulative IPC: 0.289137 (Simulation time: 0 hr 37 min 38 sec) 
Heartbeat CPU 0 instructions: 80000000 cycles: 119560368 heartbeat IPC: 0.293722 cumulative IPC: 0.29065 (Simulation time: 0 hr 43 min 50 sec) 
Heartbeat CPU 0 instructions: 90000003 cycles: 153248439 heartbeat IPC: 0.296841 cumulative IPC: 0.292173 (Simulation time: 0 hr 50 min 9 sec) 
Heartbeat CPU 0 instructions: 100000000 cycles: 187217492 heartbeat IPC: 0.294386 cumulative IPC: 0.292613 (Simulation time: 0 hr 56 min 28 sec) 
Finished CPU 0 instructions: 50000000 cycles: 170874249 cumulative IPC: 0.292613 (Simulation time: 0 hr 56 min 28 sec) 

ChampSim completed all CPUs

Region of Interest Statistics

CPU 0 cumulative IPC: 0.292613 instructions: 50000000 cycles: 170874249
ITLB TOTAL     ACCESS:    8718516  HIT:    8701313  MISS:      17203  HIT %:    99.8027  MISS %:   0.197316   MPKI: 0.34406
ITLB LOAD TRANSLATION ACCESS:    8718516  HIT:    8701313  MISS:      17203  HIT %:    99.8027  MISS %:   0.197316   MPKI: 0.34406
ITLB PREFETCH  REQUESTED:          0  ISSUED:          0  USEFUL:          0  USELESS:          0
ITLB USEFUL LOAD PREFETCHES:          0 PREFETCH ISSUED TO LOWER LEVEL:          0  ACCURACY: -nan
ITLB TIMELY PREFETCHES:          0 LATE PREFETCHES: 0 DROPPED PREFETCHES: 0
ITLB PREFETCHES SAME FILL-ORIGIN LEVEL: 0 DIFFERENT FILL-ORIGIN LEVEL: 0
ITLB AVERAGE MISS LATENCY: 12.0231 cycles
ITLB RQ	ACCESS:    9808149	FORWARD:          0	MERGED:    1082015	TO_CACHE:    8726134

DTLB TOTAL     ACCESS:   14704910  HIT:   13747243  MISS:     957667  HIT %:    93.4874  MISS %:    6.51257   MPKI: 19.1533
DTLB LOAD TRANSLATION ACCESS:   14704910  HIT:   13747243  MISS:     957667  HIT %:    93.4874  MISS %:    6.51257   MPKI: 19.1533
DTLB PREFETCH  REQUESTED:          0  ISSUED:          0  USEFUL:          0  USELESS:          0
DTLB USEFUL LOAD PREFETCHES:          0 PREFETCH ISSUED TO LOWER LEVEL:          0  ACCURACY: -nan
DTLB TIMELY PREFETCHES:          0 LATE PREFETCHES: 0 DROPPED PREFETCHES: 0
DTLB PREFETCHES SAME FILL-ORIGIN LEVEL: 0 DIFFERENT FILL-ORIGIN LEVEL: 0
DTLB AVERAGE MISS LATENCY: 16.005 cycles
DTLB RQ	ACCESS:   17863911	FORWARD:          0	MERGED:    3114356	TO_CACHE:   14749555

STLB TOTAL     ACCESS:    7899912  HIT:    7549653  MISS:     350259  HIT %:    95.5663  MISS %:    4.43371   MPKI: 7.00518
STLB LOAD TRANSLATION ACCESS:     974870  HIT:     874978  MISS:      99892  HIT %:    89.7533  MISS %:    10.2467   MPKI: 1.99784
STLB TRANSLATION FROM L1D PREFETCHER ACCESS:    6925042  HIT:    6674675  MISS:     250367  HIT %:    96.3846  MISS %:    3.61539   MPKI: 5.00734
STLB PREFETCH  REQUESTED:          0  ISSUED:          0  USEFUL:     196845  USELESS:      53541
STLB USEFUL LOAD PREFETCHES:     196845 PREFETCH ISSUED TO LOWER LEVEL:          0  ACCURACY: inf
STLB TIMELY PREFETCHES:     196845 LATE PREFETCHES: 951 DROPPED PREFETCHES: 0
STLB PREFETCHES SAME FILL-ORIGIN LEVEL: 0 DIFFERENT FILL-ORIGIN LEVEL: 0
STLB AVERAGE MISS LATENCY: 95.9568 cycles
STLB RQ	ACCESS:    9057527	FORWARD:          0	MERGED:    1154621	TO_CACHE:    7902906

STLB Hit, L1D data hit: 0
STLB Hit, L2C data hit: 0
STLB Hit, LLC data hit: 0
STLB Hit, LLC data miss: 0
STLB STLB hints to L2: 0
L1D TOTAL     ACCESS:   25427300  HIT:   23870515  MISS:    1556785  HIT %:    93.8775  MISS %:    6.12249   MPKI: 31.1357
L1D LOAD      ACCESS:    9504669  HIT:    8968490  MISS:     536179  HIT %:    94.3588  MISS %:    5.64122   MPKI: 10.7236
L1D RFO       ACCESS:    7950970  HIT:    7812751  MISS:     138219  HIT %:    98.2616  MISS %:    1.73839   MPKI: 2.76438
L1D PREFETCH  ACCESS:    7971661  HIT:    7089274  MISS:     882387  HIT %:     88.931  MISS %:     11.069   MPKI: 17.6477
AGUS PREFETCH L1 MISS: 0
L1D PREFETCH  REQUESTED:   18114430  ISSUED:   16429373  USEFUL:     530842  USELESS:     351588
L1D USEFUL LOAD PREFETCHES:     530842 PREFETCH ISSUED TO LOWER LEVEL:     891015  ACCURACY: 59.5772
L1D TIMELY PREFETCHES:     530842 LATE PREFETCHES: 6753 DROPPED PREFETCHES: 0
L1D PREFETCHES SAME FILL-ORIGIN LEVEL: 891015 DIFFERENT FILL-ORIGIN LEVEL: 0
L1D AVERAGE MISS LATENCY: 155.086 cycles
L1D RQ	ACCESS:   14078229	FORWARD:          0	MERGED:    4055181	TO_CACHE:    9573105
L1D WQ	ACCESS:    8476021	FORWARD:     451006	MERGED:     185215	TO_CACHE:    8290806
L1D PQ	ACCESS:    8346716	FORWARD:          0	MERGED:     262996	TO_CACHE:    8082657

L1D UNIQUE REGIONS ACCESSED: 0
L1D REGIONS CONFLICTS: 0
L1D Cross Page Prefetch Requests: 12104986
L1D Same Page Prefetch Requests: 2539684
L1D ROI Sum of L1D PQ occupancy: 173835673
L1D PREFETCHES PUSHED FROM L2C: 0
L1I TOTAL     ACCESS:    9807849  HIT:    9806308  MISS:       1541  HIT %:    99.9843  MISS %:  0.0157119   MPKI: 0.03082
L1I LOAD      ACCESS:    9807849  HIT:    9806308  MISS:       1541  HIT %:    99.9843  MISS %:  0.0157119   MPKI: 0.03082
L1I PREFETCH  REQUESTED:          0  ISSUED:          0  USEFUL:          0  USELESS:          0
L1I USEFUL LOAD PREFETCHES:          0 PREFETCH ISSUED TO LOWER LEVEL:          0  ACCURACY: -nan
L1I TIMELY PREFETCHES:          0 LATE PREFETCHES: 0 DROPPED PREFETCHES: 0
L1I PREFETCHES SAME FILL-ORIGIN LEVEL: 0 DIFFERENT FILL-ORIGIN LEVEL: 0
L1I AVERAGE MISS LATENCY: 157.086 cycles
L1I RQ	ACCESS:   14765181	FORWARD:          0	MERGED:    4957032	TO_CACHE:    9808149

BTB TOTAL     ACCESS:   10008127  HIT:    9487979  MISS:     520148  HIT %:    94.8027  MISS %:    5.19726   MPKI: 10.403
BTB BRANCH_DIRECT_JUMP	ACCESS:     964407  HIT:     964245  MISS:        162
BTB BRANCH_INDIRECT	ACCESS:     140341  HIT:     116325  MISS:      24016
BTB BRANCH_CONDITIONAL	ACCESS:    5906173  HIT:    5905784  MISS:        389
BTB BRANCH_DIRECT_CALL	ACCESS:    1294152  HIT:    1293861  MISS:        291
BTB BRANCH_INDIRECT_CALL	ACCESS:     204449  HIT:     203146  MISS:       1303
BTB BRANCH_RETURN	ACCESS:    1498605  HIT:    1004618  MISS:     493987
BTB BRANCH_OTHER ACCESS:          0  HIT:          0  MISS:          0

L2C TOTAL     ACCESS:    2450723  HIT:    1075195  MISS:    1375528  HIT %:    43.8726  MISS %:    56.1274   MPKI: 27.5106
L2C LOAD      ACCESS:     530956  HIT:     128109  MISS:     402847  HIT %:     24.128  MISS %:     75.872   MPKI: 8.05694
L2C DATA LOAD MPKI: 8.0302
L2C INSTRUCTION LOAD MPKI: 0.02674
L2C RFO       ACCESS:     136342  HIT:      11356  MISS:     124986  HIT %:    8.32905  MISS %:    91.6709   MPKI: 2.49972
L2C PREFETCH  ACCESS:     890979  HIT:     175334  MISS:     715645  HIT %:    19.6788  MISS %:    80.3212   MPKI: 14.3129
AGUS PREFETCH L1 MISS: 0
L2C DATA PREFETCH MPKI: 14.3129
L2C INSTRUCTION PREFETCH MPKI: 0
L2C WRITEBACK ACCESS:     503741  HIT:     502290  MISS:       1451  HIT %:     99.712  MISS %:   0.288045   MPKI: 0.02902
L2C LOAD TRANSLATION ACCESS:     109050  HIT:      74945  MISS:      34105  HIT %:    68.7254  MISS %:    31.2746   MPKI: 0.6821
L2C TRANSLATION FROM L1D PREFETCHER ACCESS:     279655  HIT:     183161  MISS:      96494  HIT %:    65.4953  MISS %:    34.5047   MPKI: 1.92988
L2C PREFETCH  REQUESTED:          0  ISSUED:          0  USEFUL:      88565  USELESS:     723184
L2C USEFUL LOAD PREFETCHES:      88565 PREFETCH ISSUED TO LOWER LEVEL:     715645  ACCURACY: 12.3755
L2C TIMELY PREFETCHES:      88565 LATE PREFETCHES: 0 DROPPED PREFETCHES: 0
L2C PREFETCHES SAME FILL-ORIGIN LEVEL: 0 DIFFERENT FILL-ORIGIN LEVEL: 0
L2C AVERAGE MISS LATENCY: 166.405 cycles
L2C RQ	ACCESS:    1056016	FORWARD:          0	MERGED:          0	TO_CACHE:    1056003
L2C WQ	ACCESS:     503741	FORWARD:         49	MERGED:          0	TO_CACHE:     503741
L2C PQ	ACCESS:     891015	FORWARD:          0	MERGED:          0	TO_CACHE:     890979

L2C Instructions Evicting Data 1221
L2C Translations Evicting Data 117632
L2C Data Evicting Data 1122640
L2C Instructions Evicting Instructions 8
L2C Translations Evicting Instructions 123
L2C Data Evicting Instructions 1206
L2C Instructions Evicting Translations 108
L2C Translations Evicting Translations 12844
L2C Data Evicting Translations 118295
L2C Dense regions hint from L2: 0
PSCL5 TOTAL     ACCESS:     350259  HIT:     350259  MISS:          0  HIT %:        100  MISS %:          0   MPKI: 0
PSCL5 LOAD TRANSLATION ACCESS:      98941  HIT:      98941  MISS:          0  HIT %:        100  MISS %:          0   MPKI: 0
PSCL5 TRANSLATION FROM L1D PREFETCHER ACCESS:     251318  HIT:     251318  MISS:          0  HIT %:        100  MISS %:          0   MPKI: 0
PSCL5 PREFETCH  REQUESTED:          0  ISSUED:          0  USEFUL:          0  USELESS:          0
PSCL5 USEFUL LOAD PREFETCHES:          0 PREFETCH ISSUED TO LOWER LEVEL:          0  ACCURACY: -nan
PSCL5 TIMELY PREFETCHES:          0 LATE PREFETCHES: 0 DROPPED PREFETCHES: 0
PSCL5 PREFETCHES SAME FILL-ORIGIN LEVEL: 0 DIFFERENT FILL-ORIGIN LEVEL: 0

PSCL4 TOTAL     ACCESS:     350259  HIT:     350259  MISS:          0  HIT %:        100  MISS %:          0   MPKI: 0
PSCL4 LOAD TRANSLATION ACCESS:      98941  HIT:      98941  MISS:          0  HIT %:        100  MISS %:          0   MPKI: 0
PSCL4 TRANSLATION FROM L1D PREFETCHER ACCESS:     251318  HIT:     251318  MISS:          0  HIT %:        100  MISS %:          0   MPKI: 0
PSCL4 PREFETCH  REQUESTED:          0  ISSUED:          0  USEFUL:          0  USELESS:          0
PSCL4 USEFUL LOAD PREFETCHES:          0 PREFETCH ISSUED TO LOWER LEVEL:          0  ACCURACY: -nan
PSCL4 TIMELY PREFETCHES:          0 LATE PREFETCHES: 0 DROPPED PREFETCHES: 0
PSCL4 PREFETCHES SAME FILL-ORIGIN LEVEL: 0 DIFFERENT FILL-ORIGIN LEVEL: 0

PSCL3 TOTAL     ACCESS:     350259  HIT:     350259  MISS:          0  HIT %:        100  MISS %:          0   MPKI: 0
PSCL3 LOAD TRANSLATION ACCESS:      98941  HIT:      98941  MISS:          0  HIT %:        100  MISS %:          0   MPKI: 0
PSCL3 TRANSLATION FROM L1D PREFETCHER ACCESS:     251318  HIT:     251318  MISS:          0  HIT %:        100  MISS %:          0   MPKI: 0
PSCL3 PREFETCH  REQUESTED:          0  ISSUED:          0  USEFUL:          0  USELESS:          0
PSCL3 USEFUL LOAD PREFETCHES:          0 PREFETCH ISSUED TO LOWER LEVEL:          0  ACCURACY: -nan
PSCL3 TIMELY PREFETCHES:          0 LATE PREFETCHES: 0 DROPPED PREFETCHES: 0
PSCL3 PREFETCHES SAME FILL-ORIGIN LEVEL: 0 DIFFERENT FILL-ORIGIN LEVEL: 0

PSCL2 TOTAL     ACCESS:     350259  HIT:     311812  MISS:      38447  HIT %:    89.0233  MISS %:    10.9767   MPKI: 0.76894
PSCL2 LOAD TRANSLATION ACCESS:     127278  HIT:      88831  MISS:      38447  HIT %:    69.7929  MISS %:    30.2071   MPKI: 0.76894
PSCL2 TRANSLATION FROM L1D PREFETCHER ACCESS:     222981  HIT:     222981  MISS:          0  HIT %:        100  MISS %:          0   MPKI: 0
PSCL2 PREFETCH  REQUESTED:          0  ISSUED:          0  USEFUL:          0  USELESS:          0
PSCL2 USEFUL LOAD PREFETCHES:          0 PREFETCH ISSUED TO LOWER LEVEL:          0  ACCURACY: -nan
PSCL2 TIMELY PREFETCHES:          0 LATE PREFETCHES: 0 DROPPED PREFETCHES: 0
PSCL2 PREFETCHES SAME FILL-ORIGIN LEVEL: 0 DIFFERENT FILL-ORIGIN LEVEL: 0

LLC TOTAL     ACCESS:    1818013  HIT:     804008  MISS:    1014005  HIT %:    44.2245  MISS %:    55.7755   MPKI: 20.2801
LLC LOAD      ACCESS:     402847  HIT:      90934  MISS:     311913  HIT %:    22.5728  MISS %:    77.4272   MPKI: 6.23826
LLC RFO       ACCESS:     124986  HIT:      18061  MISS:     106925  HIT %:    14.4504  MISS %:    85.5496   MPKI: 2.1385
LLC PREFETCH  ACCESS:     715645  HIT:     158385  MISS:     557260  HIT %:    22.1318  MISS %:    77.8682   MPKI: 11.1452
AGUS PREFETCH L1 MISS: 0
LLC WRITEBACK ACCESS:     443936  HIT:     443134  MISS:        802  HIT %:    99.8193  MISS %:   0.180657   MPKI: 0.01604
LLC LOAD TRANSLATION ACCESS:      34105  HIT:      26726  MISS:       7379  HIT %:    78.3639  MISS %:    21.6361   MPKI: 0.14758
LLC TRANSLATION FROM L1D PREFETCHER ACCESS:      96494  HIT:      66768  MISS:      29726  HIT %:    69.1939  MISS %:    30.8061   MPKI: 0.59452
LLC PREFETCH  REQUESTED:          0  ISSUED:          0  USEFUL:      45762  USELESS:     539162
LLC USEFUL LOAD PREFETCHES:      45762 PREFETCH ISSUED TO LOWER LEVEL:     557260  ACCURACY: 8.21197
LLC TIMELY PREFETCHES:      45762 LATE PREFETCHES: 0 DROPPED PREFETCHES: 0
LLC PREFETCHES SAME FILL-ORIGIN LEVEL: 0 DIFFERENT FILL-ORIGIN LEVEL: 0
LLC AVERAGE MISS LATENCY: 185.043 cycles
LLC RQ	ACCESS:     658432	FORWARD:          0	MERGED:          0	TO_CACHE:     658432
LLC WQ	ACCESS:     443936	FORWARD:          0	MERGED:          0	TO_CACHE:     443936
LLC PQ	ACCESS:     715645	FORWARD:          0	MERGED:          0	TO_CACHE:     715645

LLC Dense regions hint to LLC: 0

RAW hits: 797208
Loads Generated: 14875440
Loads sent to L1D: 14078229
Stores Generated: 8476009
Stores sent to L1D: 8476021
Major fault: 0 Minor fault: 33441
Allocated PAGES: 33441
Prefetcher final stats
Training Unit Size: 1512
Addr table size: 385917 396381


Triggers: 16277978
Structural address exists: 12602885 77.4229
No Prediction: 3675093 22.5771
Prefetches issued: 14644670 89.9661
Useful Prefetches: 530842
Useless Prefetches: 351588
Stream end: 11653514
No translation: 3134133859
%Stream divergence: 1392338 8.55351
Stream divergence -- new stream: 0

DRAM Statistics
 CHANNEL 0
 RQ ROW_BUFFER_HIT:      90538  ROW_BUFFER_MISS:     922649
 DBUS_CONGESTED:        272
 WQ ROW_BUFFER_HIT:      66175  ROW_BUFFER_MISS:     304060  FULL:          0

 AVG_CONGESTED_CYCLE: 4
 All warmup complete: 2
Channel 0 Bank busy for read cycles: 0
Channel 0 Bank busy for write cycles: 0
Channel 0
Rank 0
0banks busy for read cycles: 61996159
0banks busy for write cycles: 109930
1banks busy for read cycles: 38866667
1banks busy for write cycles: 14671858
2banks busy for read cycles: 19195994
2banks busy for write cycles: 7798908
3banks busy for read cycles: 9375540
3banks busy for write cycles: 4567084
4banks busy for read cycles: 4614660
4banks busy for write cycles: 2791275
5banks busy for read cycles: 2209286
5banks busy for write cycles: 1719359
6banks busy for read cycles: 924092
6banks busy for write cycles: 992459
7banks busy for read cycles: 272128
7banks busy for write cycles: 504126
8banks busy for read cycles: 73305
8banks busy for write cycles: 191420

CPU 0 Branch Prediction Accuracy: 94.0755% MPKI: 14.2353 Average ROB Occupancy at Mispredict: 25.4772
Branch types
NOT_BRANCH: 37985827 75.9717%
BRANCH_DIRECT_JUMP: 964407 1.92881%
BRANCH_INDIRECT: 140341 0.280682%
BRANCH_CONDITIONAL: 7911988 15.824%
BRANCH_DIRECT_CALL: 1294152 2.5883%
BRANCH_INDIRECT_CALL: 204449 0.408898%
BRANCH_RETURN: 1498605 2.99721%
BRANCH_OTHER: 0 0%

DRAM PAGES: 1048576
Allocated PAGES: 33441
