
*** ChampSim Multicore Out-of-Order Simulator ***

Warmup Instructions: 50000000
Simulation Instructions: 50000000
Number of CPUs: 1
LLC sets: 2048
LLC ways: 16
Off-chip DRAM Size: 4096 MB Channels: 1 Width: 64-bit Data Rate: 6400 MT/s
CPU 0 runs traces/SPEC-CPU2017/482.sphinx3-234B.champsimtrace.xz
.xz
CPU 0 Bimodal branch predictor
BTB has LRU replacement policy
ITLB has LRU replacement policy
DTLB has LRU replacement policy
STLB has LRU replacement policy
L1I has LRU replacement policy
Ideal ISB Prefetching
L1D has LRU replacement policy
L2C has LRU replacement policy
LLC has LRU replacement policy
Heartbeat CPU 0 instructions: 10000000 cycles: 3095386 heartbeat IPC: 3.23061 cumulative IPC: 3.23061 (Simulation time: 0 hr 0 min 31 sec) 
Heartbeat CPU 0 instructions: 20000000 cycles: 6190183 heartbeat IPC: 3.23123 cumulative IPC: 3.23092 (Simulation time: 0 hr 1 min 3 sec) 
Heartbeat CPU 0 instructions: 30000001 cycles: 9282643 heartbeat IPC: 3.23367 cumulative IPC: 3.23184 (Simulation time: 0 hr 1 min 36 sec) 
Heartbeat CPU 0 instructions: 40000000 cycles: 12412317 heartbeat IPC: 3.19522 cumulative IPC: 3.22261 (Simulation time: 0 hr 2 min 9 sec) 
Heartbeat CPU 0 instructions: 50000000 cycles: 15459985 heartbeat IPC: 3.2812 cumulative IPC: 3.23416 (Simulation time: 0 hr 2 min 41 sec) 

Warmup complete CPU 0 instructions: 50000004 cycles: 15459986 (Simulation time: 0 hr 2 min 41 sec) 

Heartbeat CPU 0 instructions: 60000000 cycles: 28052358 heartbeat IPC: 0.794132 cumulative IPC: 0.794131 (Simulation time: 0 hr 3 min 29 sec) 
Heartbeat CPU 0 instructions: 70000001 cycles: 40057956 heartbeat IPC: 0.832945 cumulative IPC: 0.813075 (Simulation time: 0 hr 4 min 16 sec) 
Heartbeat CPU 0 instructions: 80000000 cycles: 52057702 heartbeat IPC: 0.833351 cumulative IPC: 0.819723 (Simulation time: 0 hr 5 min 3 sec) 
Heartbeat CPU 0 instructions: 90000001 cycles: 64245236 heartbeat IPC: 0.820511 cumulative IPC: 0.81992 (Simulation time: 0 hr 5 min 51 sec) 
Heartbeat CPU 0 instructions: 100000000 cycles: 77152828 heartbeat IPC: 0.774738 cumulative IPC: 0.810467 (Simulation time: 0 hr 6 min 41 sec) 
Finished CPU 0 instructions: 50000000 cycles: 61692859 cumulative IPC: 0.810467 (Simulation time: 0 hr 6 min 41 sec) 

ChampSim completed all CPUs

Region of Interest Statistics

CPU 0 cumulative IPC: 0.810467 instructions: 50000000 cycles: 61692859
ITLB TOTAL     ACCESS:    9682442  HIT:    9682442  MISS:          0  HIT %:        100  MISS %:          0   MPKI: 0
ITLB LOAD TRANSLATION ACCESS:    9682442  HIT:    9682442  MISS:          0  HIT %:        100  MISS %:          0   MPKI: 0
ITLB PREFETCH  REQUESTED:          0  ISSUED:          0  USEFUL:          0  USELESS:          0
ITLB USEFUL LOAD PREFETCHES:          0 PREFETCH ISSUED TO LOWER LEVEL:          0  ACCURACY: -nan
ITLB TIMELY PREFETCHES:          0 LATE PREFETCHES: 0 DROPPED PREFETCHES: 0
ITLB PREFETCHES SAME FILL-ORIGIN LEVEL: 0 DIFFERENT FILL-ORIGIN LEVEL: 0
ITLB AVERAGE MISS LATENCY: -nan cycles
ITLB RQ	ACCESS:   10487786	FORWARD:          0	MERGED:     805344	TO_CACHE:    9682442

DTLB TOTAL     ACCESS:    8693164  HIT:    8631208  MISS:      61956  HIT %:    99.2873  MISS %:   0.712698   MPKI: 1.23912
DTLB LOAD TRANSLATION ACCESS:    8693164  HIT:    8631208  MISS:      61956  HIT %:    99.2873  MISS %:   0.712698   MPKI: 1.23912
DTLB PREFETCH  REQUESTED:          0  ISSUED:          0  USEFUL:          0  USELESS:          0
DTLB USEFUL LOAD PREFETCHES:          0 PREFETCH ISSUED TO LOWER LEVEL:          0  ACCURACY: -nan
DTLB TIMELY PREFETCHES:          0 LATE PREFETCHES: 0 DROPPED PREFETCHES: 0
DTLB PREFETCHES SAME FILL-ORIGIN LEVEL: 0 DIFFERENT FILL-ORIGIN LEVEL: 0
DTLB AVERAGE MISS LATENCY: 20.5993 cycles
DTLB RQ	ACCESS:    9602214	FORWARD:          0	MERGED:     898345	TO_CACHE:    8703869

STLB TOTAL     ACCESS:     294945  HIT:     273896  MISS:      21049  HIT %:    92.8634  MISS %:    7.13658   MPKI: 0.42098
STLB LOAD TRANSLATION ACCESS:      61956  HIT:      55818  MISS:       6138  HIT %:     90.093  MISS %:    9.90703   MPKI: 0.12276
STLB TRANSLATION FROM L1D PREFETCHER ACCESS:     232989  HIT:     218078  MISS:      14911  HIT %:    93.6001  MISS %:    6.39987   MPKI: 0.29822
STLB PREFETCH  REQUESTED:          0  ISSUED:          0  USEFUL:      13394  USELESS:       1515
STLB USEFUL LOAD PREFETCHES:      13394 PREFETCH ISSUED TO LOWER LEVEL:          0  ACCURACY: inf
STLB TIMELY PREFETCHES:      13394 LATE PREFETCHES: 37 DROPPED PREFETCHES: 0
STLB PREFETCHES SAME FILL-ORIGIN LEVEL: 0 DIFFERENT FILL-ORIGIN LEVEL: 0
STLB AVERAGE MISS LATENCY: 81.6735 cycles
STLB RQ	ACCESS:     840924	FORWARD:          0	MERGED:     545857	TO_CACHE:     295067

STLB Hit, L1D data hit: 0
STLB Hit, L2C data hit: 0
STLB Hit, LLC data hit: 0
STLB Hit, LLC data miss: 0
STLB STLB hints to L2: 0
L1D TOTAL     ACCESS:    9785548  HIT:    8910394  MISS:     875154  HIT %:    91.0567  MISS %:    8.94333   MPKI: 17.5031
L1D LOAD      ACCESS:    8430225  HIT:    8196182  MISS:     234043  HIT %:    97.2238  MISS %:    2.77624   MPKI: 4.68086
L1D RFO       ACCESS:     688398  HIT:     654533  MISS:      33865  HIT %:    95.0806  MISS %:    4.91939   MPKI: 0.6773
L1D PREFETCH  ACCESS:     666925  HIT:      59679  MISS:     607246  HIT %:    8.94838  MISS %:    91.0516   MPKI: 12.1449
AGUS PREFETCH L1 MISS: 0
L1D PREFETCH  REQUESTED:    1735198  ISSUED:    1571670  USEFUL:     452157  USELESS:     155175
L1D USEFUL LOAD PREFETCHES:     452157 PREFETCH ISSUED TO LOWER LEVEL:     613240  ACCURACY: 73.7325
L1D TIMELY PREFETCHES:     452157 LATE PREFETCHES: 5994 DROPPED PREFETCHES: 0
L1D PREFETCHES SAME FILL-ORIGIN LEVEL: 613240 DIFFERENT FILL-ORIGIN LEVEL: 0
L1D AVERAGE MISS LATENCY: 130.484 cycles
L1D RQ	ACCESS:   12888848	FORWARD:          0	MERGED:    4132521	TO_CACHE:    8745380
L1D WQ	ACCESS:     858601	FORWARD:      10949	MERGED:       1767	TO_CACHE:     856834
L1D PQ	ACCESS:     792702	FORWARD:          0	MERGED:      13732	TO_CACHE:     778968

L1D UNIQUE REGIONS ACCESSED: 0
L1D REGIONS CONFLICTS: 0
L1D Cross Page Prefetch Requests: 437681
L1D Same Page Prefetch Requests: 969025
L1D ROI Sum of L1D PQ occupancy: 15849785
L1D PREFETCHES PUSHED FROM L2C: 0
L1I TOTAL     ACCESS:   10487784  HIT:   10487784  MISS:          0  HIT %:        100  MISS %:          0   MPKI: 0
L1I LOAD      ACCESS:   10487784  HIT:   10487784  MISS:          0  HIT %:        100  MISS %:          0   MPKI: 0
L1I PREFETCH  REQUESTED:          0  ISSUED:          0  USEFUL:          0  USELESS:          0
L1I USEFUL LOAD PREFETCHES:          0 PREFETCH ISSUED TO LOWER LEVEL:          0  ACCURACY: -nan
L1I TIMELY PREFETCHES:          0 LATE PREFETCHES: 0 DROPPED PREFETCHES: 0
L1I PREFETCHES SAME FILL-ORIGIN LEVEL: 0 DIFFERENT FILL-ORIGIN LEVEL: 0
L1I AVERAGE MISS LATENCY: -nan cycles
L1I RQ	ACCESS:   12656573	FORWARD:          0	MERGED:    2168787	TO_CACHE:   10487786

BTB TOTAL     ACCESS:    4309219  HIT:    4298926  MISS:      10293  HIT %:    99.7611  MISS %:    0.23886   MPKI: 0.20586
BTB BRANCH_DIRECT_JUMP	ACCESS:      86243  HIT:      86192  MISS:         51
BTB BRANCH_INDIRECT	ACCESS:          0  HIT:          0  MISS:          0
BTB BRANCH_CONDITIONAL	ACCESS:    4052258  HIT:    4052079  MISS:        179
BTB BRANCH_DIRECT_CALL	ACCESS:      85360  HIT:      85282  MISS:         78
BTB BRANCH_INDIRECT_CALL	ACCESS:          0  HIT:          0  MISS:          0
BTB BRANCH_RETURN	ACCESS:      85358  HIT:      75373  MISS:       9985
BTB BRANCH_OTHER ACCESS:          0  HIT:          0  MISS:          0

L2C TOTAL     ACCESS:     938505  HIT:     260875  MISS:     677630  HIT %:    27.7969  MISS %:    72.2031   MPKI: 13.5526
L2C LOAD      ACCESS:     228048  HIT:      95692  MISS:     132356  HIT %:    41.9613  MISS %:    58.0387   MPKI: 2.64712
L2C DATA LOAD MPKI: 2.64712
L2C INSTRUCTION LOAD MPKI: 0
L2C RFO       ACCESS:      33865  HIT:       2907  MISS:      30958  HIT %:    8.58408  MISS %:    91.4159   MPKI: 0.61916
L2C PREFETCH  ACCESS:     613239  HIT:     103639  MISS:     509600  HIT %:    16.9003  MISS %:    83.0997   MPKI: 10.192
AGUS PREFETCH L1 MISS: 0
L2C DATA PREFETCH MPKI: 10.192
L2C INSTRUCTION PREFETCH MPKI: 0
L2C WRITEBACK ACCESS:      42304  HIT:      42179  MISS:        125  HIT %:    99.7045  MISS %:    0.29548   MPKI: 0.0025
L2C LOAD TRANSLATION ACCESS:       6101  HIT:       4025  MISS:       2076  HIT %:    65.9728  MISS %:    34.0272   MPKI: 0.04152
L2C TRANSLATION FROM L1D PREFETCHER ACCESS:      14948  HIT:      12433  MISS:       2515  HIT %:     83.175  MISS %:     16.825   MPKI: 0.0503
L2C PREFETCH  REQUESTED:          0  ISSUED:          0  USEFUL:      14327  USELESS:     498054
L2C USEFUL LOAD PREFETCHES:      14327 PREFETCH ISSUED TO LOWER LEVEL:     509600  ACCURACY: 2.81142
L2C TIMELY PREFETCHES:      14327 LATE PREFETCHES: 0 DROPPED PREFETCHES: 0
L2C PREFETCHES SAME FILL-ORIGIN LEVEL: 0 DIFFERENT FILL-ORIGIN LEVEL: 0
L2C AVERAGE MISS LATENCY: 149.375 cycles
L2C RQ	ACCESS:     282963	FORWARD:          0	MERGED:          0	TO_CACHE:     282962
L2C WQ	ACCESS:      42304	FORWARD:          2	MERGED:          0	TO_CACHE:      42304
L2C PQ	ACCESS:     613240	FORWARD:          0	MERGED:          0	TO_CACHE:     613239

L2C Instructions Evicting Data 0
L2C Translations Evicting Data 4579
L2C Data Evicting Data 668339
L2C Instructions Evicting Instructions 0
L2C Translations Evicting Instructions 0
L2C Data Evicting Instructions 0
L2C Instructions Evicting Translations 0
L2C Translations Evicting Translations 12
L2C Data Evicting Translations 4575
L2C Dense regions hint from L2: 0
PSCL5 TOTAL     ACCESS:      21049  HIT:      21049  MISS:          0  HIT %:        100  MISS %:          0   MPKI: 0
PSCL5 LOAD TRANSLATION ACCESS:       6101  HIT:       6101  MISS:          0  HIT %:        100  MISS %:          0   MPKI: 0
PSCL5 TRANSLATION FROM L1D PREFETCHER ACCESS:      14948  HIT:      14948  MISS:          0  HIT %:        100  MISS %:          0   MPKI: 0
PSCL5 PREFETCH  REQUESTED:          0  ISSUED:          0  USEFUL:          0  USELESS:          0
PSCL5 USEFUL LOAD PREFETCHES:          0 PREFETCH ISSUED TO LOWER LEVEL:          0  ACCURACY: -nan
PSCL5 TIMELY PREFETCHES:          0 LATE PREFETCHES: 0 DROPPED PREFETCHES: 0
PSCL5 PREFETCHES SAME FILL-ORIGIN LEVEL: 0 DIFFERENT FILL-ORIGIN LEVEL: 0

PSCL4 TOTAL     ACCESS:      21049  HIT:      21049  MISS:          0  HIT %:        100  MISS %:          0   MPKI: 0
PSCL4 LOAD TRANSLATION ACCESS:       6101  HIT:       6101  MISS:          0  HIT %:        100  MISS %:          0   MPKI: 0
PSCL4 TRANSLATION FROM L1D PREFETCHER ACCESS:      14948  HIT:      14948  MISS:          0  HIT %:        100  MISS %:          0   MPKI: 0
PSCL4 PREFETCH  REQUESTED:          0  ISSUED:          0  USEFUL:          0  USELESS:          0
PSCL4 USEFUL LOAD PREFETCHES:          0 PREFETCH ISSUED TO LOWER LEVEL:          0  ACCURACY: -nan
PSCL4 TIMELY PREFETCHES:          0 LATE PREFETCHES: 0 DROPPED PREFETCHES: 0
PSCL4 PREFETCHES SAME FILL-ORIGIN LEVEL: 0 DIFFERENT FILL-ORIGIN LEVEL: 0

PSCL3 TOTAL     ACCESS:      21049  HIT:      21049  MISS:          0  HIT %:        100  MISS %:          0   MPKI: 0
PSCL3 LOAD TRANSLATION ACCESS:       6101  HIT:       6101  MISS:          0  HIT %:        100  MISS %:          0   MPKI: 0
PSCL3 TRANSLATION FROM L1D PREFETCHER ACCESS:      14948  HIT:      14948  MISS:          0  HIT %:        100  MISS %:          0   MPKI: 0
PSCL3 PREFETCH  REQUESTED:          0  ISSUED:          0  USEFUL:          0  USELESS:          0
PSCL3 USEFUL LOAD PREFETCHES:          0 PREFETCH ISSUED TO LOWER LEVEL:          0  ACCURACY: -nan
PSCL3 TIMELY PREFETCHES:          0 LATE PREFETCHES: 0 DROPPED PREFETCHES: 0
PSCL3 PREFETCHES SAME FILL-ORIGIN LEVEL: 0 DIFFERENT FILL-ORIGIN LEVEL: 0

PSCL2 TOTAL     ACCESS:      21049  HIT:      21049  MISS:          0  HIT %:        100  MISS %:          0   MPKI: 0
PSCL2 LOAD TRANSLATION ACCESS:       6101  HIT:       6101  MISS:          0  HIT %:        100  MISS %:          0   MPKI: 0
PSCL2 TRANSLATION FROM L1D PREFETCHER ACCESS:      14948  HIT:      14948  MISS:          0  HIT %:        100  MISS %:          0   MPKI: 0
PSCL2 PREFETCH  REQUESTED:          0  ISSUED:          0  USEFUL:          0  USELESS:          0
PSCL2 USEFUL LOAD PREFETCHES:          0 PREFETCH ISSUED TO LOWER LEVEL:          0  ACCURACY: -nan
PSCL2 TIMELY PREFETCHES:          0 LATE PREFETCHES: 0 DROPPED PREFETCHES: 0
PSCL2 PREFETCHES SAME FILL-ORIGIN LEVEL: 0 DIFFERENT FILL-ORIGIN LEVEL: 0

LLC TOTAL     ACCESS:     715735  HIT:      69553  MISS:     646182  HIT %:     9.7177  MISS %:    90.2823   MPKI: 12.9236
LLC LOAD      ACCESS:     132355  HIT:      14678  MISS:     117677  HIT %:    11.0899  MISS %:    88.9101   MPKI: 2.35354
LLC RFO       ACCESS:      30958  HIT:       4939  MISS:      26019  HIT %:    15.9539  MISS %:    84.0461   MPKI: 0.52038
LLC PREFETCH  ACCESS:     509600  HIT:      12600  MISS:     497000  HIT %:    2.47253  MISS %:    97.5275   MPKI: 9.94
AGUS PREFETCH L1 MISS: 0
LLC WRITEBACK ACCESS:      38231  HIT:      37222  MISS:       1009  HIT %:    97.3608  MISS %:    2.63922   MPKI: 0.02018
LLC LOAD TRANSLATION ACCESS:       2076  HIT:         46  MISS:       2030  HIT %:     2.2158  MISS %:    97.7842   MPKI: 0.0406
LLC TRANSLATION FROM L1D PREFETCHER ACCESS:       2515  HIT:         68  MISS:       2447  HIT %:    2.70378  MISS %:    97.2962   MPKI: 0.04894
LLC PREFETCH  REQUESTED:          0  ISSUED:          0  USEFUL:       4319  USELESS:     496809
LLC USEFUL LOAD PREFETCHES:       4319 PREFETCH ISSUED TO LOWER LEVEL:     497000  ACCURACY: 0.869014
LLC TIMELY PREFETCHES:       4319 LATE PREFETCHES: 0 DROPPED PREFETCHES: 0
LLC PREFETCHES SAME FILL-ORIGIN LEVEL: 0 DIFFERENT FILL-ORIGIN LEVEL: 0
LLC AVERAGE MISS LATENCY: 125.19 cycles
LLC RQ	ACCESS:     167905	FORWARD:          0	MERGED:          0	TO_CACHE:     167904
LLC WQ	ACCESS:      38231	FORWARD:          1	MERGED:          0	TO_CACHE:      38231
LLC PQ	ACCESS:     509600	FORWARD:          0	MERGED:          0	TO_CACHE:     509600

LLC Dense regions hint to LLC: 0

RAW hits: 56887
Loads Generated: 12945735
Loads sent to L1D: 12888848
Stores Generated: 858600
Stores sent to L1D: 858601
Major fault: 0 Minor fault: 4120
Allocated PAGES: 4120
Prefetcher final stats
Training Unit Size: 488
Addr table size: 141125 141154


Triggers: 658500
Structural address exists: 467044 70.9254
No Prediction: 191456 29.0746
Prefetches issued: 1406706 213.623
Useful Prefetches: 452157
Useless Prefetches: 155175
Stream end: 312833
No translation: 317050114
%Stream divergence: 126876 19.2674
Stream divergence -- new stream: 0

DRAM Statistics
 CHANNEL 0
 RQ ROW_BUFFER_HIT:     422195  ROW_BUFFER_MISS:     222978
 DBUS_CONGESTED:        116
 WQ ROW_BUFFER_HIT:       4516  ROW_BUFFER_MISS:      31108  FULL:          0

 AVG_CONGESTED_CYCLE: 4
 All warmup complete: 2
Channel 0 Bank busy for read cycles: 0
Channel 0 Bank busy for write cycles: 0
Channel 0
Rank 0
0banks busy for read cycles: 40802818
0banks busy for write cycles: 15345
1banks busy for read cycles: 7485268
1banks busy for write cycles: 1758178
2banks busy for read cycles: 2788148
2banks busy for write cycles: 628588
3banks busy for read cycles: 1547049
3banks busy for write cycles: 316552
4banks busy for read cycles: 967738
4banks busy for write cycles: 181392
5banks busy for read cycles: 867976
5banks busy for write cycles: 121227
6banks busy for read cycles: 1224232
6banks busy for write cycles: 71098
7banks busy for read cycles: 1571128
7banks busy for write cycles: 37891
8banks busy for read cycles: 1287739
8banks busy for write cycles: 20493

CPU 0 Branch Prediction Accuracy: 95.9006% MPKI: 3.75384 Average ROB Occupancy at Mispredict: 73.2608
Branch types
NOT_BRANCH: 45421448 90.8429%
BRANCH_DIRECT_JUMP: 86243 0.172486%
BRANCH_INDIRECT: 0 0%
BRANCH_CONDITIONAL: 4321570 8.64314%
BRANCH_DIRECT_CALL: 85360 0.17072%
BRANCH_INDIRECT_CALL: 0 0%
BRANCH_RETURN: 85358 0.170716%
BRANCH_OTHER: 0 0%

DRAM PAGES: 1048576
Allocated PAGES: 4120
