
*** ChampSim Multicore Out-of-Order Simulator ***

Warmup Instructions: 50000000
Simulation Instructions: 50000000
Number of CPUs: 1
LLC sets: 2048
LLC ways: 16
Off-chip DRAM Size: 4096 MB Channels: 1 Width: 64-bit Data Rate: 6400 MT/s
CPU 0 runs traces/SPEC-CPU2017/482.sphinx3-234B.champsimtrace.xz
.xz
CPU 0 Bimodal branch predictor
BTB has LRU replacement policy
ITLB has LRU replacement policy
DTLB has LRU replacement policy
STLB has LRU replacement policy
L1I has LRU replacement policy
Ideal ISB Prefetching
L1D has LRU replacement policy
L2C has LRU replacement policy
LLC has LRU replacement policy
Heartbeat CPU 0 instructions: 10000000 cycles: 3095123 heartbeat IPC: 3.23089 cumulative IPC: 3.23089 (Simulation time: 0 hr 0 min 35 sec) 
Heartbeat CPU 0 instructions: 20000000 cycles: 6190296 heartbeat IPC: 3.23084 cumulative IPC: 3.23086 (Simulation time: 0 hr 1 min 11 sec) 
Heartbeat CPU 0 instructions: 30000001 cycles: 9282799 heartbeat IPC: 3.23363 cumulative IPC: 3.23178 (Simulation time: 0 hr 1 min 47 sec) 
Heartbeat CPU 0 instructions: 40000000 cycles: 12412765 heartbeat IPC: 3.19492 cumulative IPC: 3.22249 (Simulation time: 0 hr 2 min 24 sec) 
Heartbeat CPU 0 instructions: 50000000 cycles: 15460435 heartbeat IPC: 3.2812 cumulative IPC: 3.23406 (Simulation time: 0 hr 2 min 59 sec) 

Warmup complete CPU 0 instructions: 50000004 cycles: 15460436 (Simulation time: 0 hr 2 min 59 sec) 

Heartbeat CPU 0 instructions: 60000000 cycles: 28294181 heartbeat IPC: 0.779196 cumulative IPC: 0.779195 (Simulation time: 0 hr 3 min 52 sec) 
Heartbeat CPU 0 instructions: 70000001 cycles: 40363520 heartbeat IPC: 0.828546 cumulative IPC: 0.803113 (Simulation time: 0 hr 4 min 43 sec) 
Heartbeat CPU 0 instructions: 80000000 cycles: 52391313 heartbeat IPC: 0.831408 cumulative IPC: 0.812328 (Simulation time: 0 hr 5 min 35 sec) 
Heartbeat CPU 0 instructions: 90000001 cycles: 64563173 heartbeat IPC: 0.821567 cumulative IPC: 0.814618 (Simulation time: 0 hr 6 min 28 sec) 
Heartbeat CPU 0 instructions: 100000000 cycles: 77411700 heartbeat IPC: 0.778299 cumulative IPC: 0.807086 (Simulation time: 0 hr 7 min 22 sec) 
Finished CPU 0 instructions: 50000000 cycles: 61951281 cumulative IPC: 0.807086 (Simulation time: 0 hr 7 min 22 sec) 

ChampSim completed all CPUs

Region of Interest Statistics

CPU 0 cumulative IPC: 0.807086 instructions: 50000000 cycles: 61951281
ITLB TOTAL     ACCESS:    9694631  HIT:    9694631  MISS:          0  HIT %:        100  MISS %:          0   MPKI: 0
ITLB LOAD TRANSLATION ACCESS:    9694631  HIT:    9694631  MISS:          0  HIT %:        100  MISS %:          0   MPKI: 0
ITLB PREFETCH  REQUESTED:          0  ISSUED:          0  USEFUL:          0  USELESS:          0
ITLB USEFUL LOAD PREFETCHES:          0 PREFETCH ISSUED TO LOWER LEVEL:          0  ACCURACY: -nan
ITLB TIMELY PREFETCHES:          0 LATE PREFETCHES: 0 DROPPED PREFETCHES: 0
ITLB PREFETCHES SAME FILL-ORIGIN LEVEL: 0 DIFFERENT FILL-ORIGIN LEVEL: 0
ITLB AVERAGE MISS LATENCY: -nan cycles
ITLB RQ	ACCESS:   10499427	FORWARD:          0	MERGED:     804796	TO_CACHE:    9694631

DTLB TOTAL     ACCESS:    8794699  HIT:    8732815  MISS:      61884  HIT %:    99.2963  MISS %:   0.703651   MPKI: 1.23768
DTLB LOAD TRANSLATION ACCESS:    8794699  HIT:    8732815  MISS:      61884  HIT %:    99.2963  MISS %:   0.703651   MPKI: 1.23768
DTLB PREFETCH  REQUESTED:          0  ISSUED:          0  USEFUL:          0  USELESS:          0
DTLB USEFUL LOAD PREFETCHES:          0 PREFETCH ISSUED TO LOWER LEVEL:          0  ACCURACY: -nan
DTLB TIMELY PREFETCHES:          0 LATE PREFETCHES: 0 DROPPED PREFETCHES: 0
DTLB PREFETCHES SAME FILL-ORIGIN LEVEL: 0 DIFFERENT FILL-ORIGIN LEVEL: 0
DTLB AVERAGE MISS LATENCY: 21.7585 cycles
DTLB RQ	ACCESS:    9727360	FORWARD:          0	MERGED:     921993	TO_CACHE:    8805367

STLB TOTAL     ACCESS:     420436  HIT:     399763  MISS:      20673  HIT %:     95.083  MISS %:    4.91704   MPKI: 0.41346
STLB LOAD TRANSLATION ACCESS:      61884  HIT:      54799  MISS:       7085  HIT %:    88.5512  MISS %:    11.4488   MPKI: 0.1417
STLB TRANSLATION FROM L1D PREFETCHER ACCESS:     358552  HIT:     344964  MISS:      13588  HIT %:    96.2103  MISS %:    3.78969   MPKI: 0.27176
STLB PREFETCH  REQUESTED:          0  ISSUED:          0  USEFUL:      12739  USELESS:        865
STLB USEFUL LOAD PREFETCHES:      12739 PREFETCH ISSUED TO LOWER LEVEL:          0  ACCURACY: inf
STLB TIMELY PREFETCHES:      12739 LATE PREFETCHES: 48 DROPPED PREFETCHES: 0
STLB PREFETCHES SAME FILL-ORIGIN LEVEL: 0 DIFFERENT FILL-ORIGIN LEVEL: 0
STLB AVERAGE MISS LATENCY: 79.0495 cycles
STLB RQ	ACCESS:    1432290	FORWARD:          0	MERGED:    1011585	TO_CACHE:     420705

STLB Hit, L1D data hit: 0
STLB Hit, L2C data hit: 0
STLB Hit, LLC data hit: 0
STLB Hit, LLC data miss: 0
STLB STLB hints to L2: 0
L1D TOTAL     ACCESS:    9964733  HIT:    9120019  MISS:     844714  HIT %:     91.523  MISS %:    8.47704   MPKI: 16.8943
L1D LOAD      ACCESS:    8576139  HIT:    8346294  MISS:     229845  HIT %:    97.3199  MISS %:    2.68005   MPKI: 4.5969
L1D RFO       ACCESS:     686743  HIT:     652806  MISS:      33937  HIT %:    95.0583  MISS %:    4.94173   MPKI: 0.67874
L1D PREFETCH  ACCESS:     701851  HIT:     120919  MISS:     580932  HIT %:    17.2286  MISS %:    82.7714   MPKI: 11.6186
AGUS PREFETCH L1 MISS: 0
L1D PREFETCH  REQUESTED:    3452075  ISSUED:    2826703  USEFUL:     454340  USELESS:     126654
L1D USEFUL LOAD PREFETCHES:     454340 PREFETCH ISSUED TO LOWER LEVEL:     588849  ACCURACY: 77.1573
L1D TIMELY PREFETCHES:     454340 LATE PREFETCHES: 7916 DROPPED PREFETCHES: 0
L1D PREFETCHES SAME FILL-ORIGIN LEVEL: 588849 DIFFERENT FILL-ORIGIN LEVEL: 0
L1D AVERAGE MISS LATENCY: 128.144 cycles
L1D RQ	ACCESS:   12889205	FORWARD:          0	MERGED:    4007739	TO_CACHE:    8870468
L1D WQ	ACCESS:     858601	FORWARD:      10998	MERGED:       1709	TO_CACHE:     856892
L1D PQ	ACCESS:    1456297	FORWARD:          0	MERGED:      85891	TO_CACHE:    1370406

L1D UNIQUE REGIONS ACCESSED: 0
L1D REGIONS CONFLICTS: 0
L1D Cross Page Prefetch Requests: 417835
L1D Same Page Prefetch Requests: 1604063
L1D ROI Sum of L1D PQ occupancy: 25017888
L1D PREFETCHES PUSHED FROM L2C: 0
L1I TOTAL     ACCESS:   10499425  HIT:   10499425  MISS:          0  HIT %:        100  MISS %:          0   MPKI: 0
L1I LOAD      ACCESS:   10499425  HIT:   10499425  MISS:          0  HIT %:        100  MISS %:          0   MPKI: 0
L1I PREFETCH  REQUESTED:          0  ISSUED:          0  USEFUL:          0  USELESS:          0
L1I USEFUL LOAD PREFETCHES:          0 PREFETCH ISSUED TO LOWER LEVEL:          0  ACCURACY: -nan
L1I TIMELY PREFETCHES:          0 LATE PREFETCHES: 0 DROPPED PREFETCHES: 0
L1I PREFETCHES SAME FILL-ORIGIN LEVEL: 0 DIFFERENT FILL-ORIGIN LEVEL: 0
L1I AVERAGE MISS LATENCY: -nan cycles
L1I RQ	ACCESS:   12696171	FORWARD:          0	MERGED:    2196744	TO_CACHE:   10499427

BTB TOTAL     ACCESS:    4309219  HIT:    4298926  MISS:      10293  HIT %:    99.7611  MISS %:    0.23886   MPKI: 0.20586
BTB BRANCH_DIRECT_JUMP	ACCESS:      86243  HIT:      86192  MISS:         51
BTB BRANCH_INDIRECT	ACCESS:          0  HIT:          0  MISS:          0
BTB BRANCH_CONDITIONAL	ACCESS:    4052258  HIT:    4052079  MISS:        179
BTB BRANCH_DIRECT_CALL	ACCESS:      85360  HIT:      85282  MISS:         78
BTB BRANCH_INDIRECT_CALL	ACCESS:          0  HIT:          0  MISS:          0
BTB BRANCH_RETURN	ACCESS:      85358  HIT:      75373  MISS:       9985
BTB BRANCH_OTHER ACCESS:          0  HIT:          0  MISS:          0

L2C TOTAL     ACCESS:     907481  HIT:     246561  MISS:     660920  HIT %:    27.1698  MISS %:    72.8302   MPKI: 13.2184
L2C LOAD      ACCESS:     221929  HIT:      90391  MISS:     131538  HIT %:    40.7297  MISS %:    59.2703   MPKI: 2.63076
L2C DATA LOAD MPKI: 2.63076
L2C INSTRUCTION LOAD MPKI: 0
L2C RFO       ACCESS:      33936  HIT:       2720  MISS:      31216  HIT %:    8.01509  MISS %:    91.9849   MPKI: 0.62432
L2C PREFETCH  ACCESS:     588849  HIT:      95362  MISS:     493487  HIT %:    16.1946  MISS %:    83.8054   MPKI: 9.86974
AGUS PREFETCH L1 MISS: 0
L2C DATA PREFETCH MPKI: 9.86974
L2C INSTRUCTION PREFETCH MPKI: 0
L2C WRITEBACK ACCESS:      42094  HIT:      41970  MISS:        124  HIT %:    99.7054  MISS %:   0.294579   MPKI: 0.00248
L2C LOAD TRANSLATION ACCESS:       7037  HIT:       4767  MISS:       2270  HIT %:    67.7419  MISS %:    32.2581   MPKI: 0.0454
L2C TRANSLATION FROM L1D PREFETCHER ACCESS:      13636  HIT:      11351  MISS:       2285  HIT %:    83.2429  MISS %:    16.7571   MPKI: 0.0457
L2C PREFETCH  REQUESTED:          0  ISSUED:          0  USEFUL:      11025  USELESS:     484924
L2C USEFUL LOAD PREFETCHES:      11025 PREFETCH ISSUED TO LOWER LEVEL:     493487  ACCURACY: 2.2341
L2C TIMELY PREFETCHES:      11025 LATE PREFETCHES: 0 DROPPED PREFETCHES: 0
L2C PREFETCHES SAME FILL-ORIGIN LEVEL: 0 DIFFERENT FILL-ORIGIN LEVEL: 0
L2C AVERAGE MISS LATENCY: 144.897 cycles
L2C RQ	ACCESS:     276538	FORWARD:          0	MERGED:          0	TO_CACHE:     276538
L2C WQ	ACCESS:      42094	FORWARD:          0	MERGED:          0	TO_CACHE:      42094
L2C PQ	ACCESS:     588849	FORWARD:          0	MERGED:          0	TO_CACHE:     588849

L2C Instructions Evicting Data 0
L2C Translations Evicting Data 4548
L2C Data Evicting Data 651695
L2C Instructions Evicting Instructions 0
L2C Translations Evicting Instructions 0
L2C Data Evicting Instructions 0
L2C Instructions Evicting Translations 0
L2C Translations Evicting Translations 7
L2C Data Evicting Translations 4546
L2C Dense regions hint from L2: 0
PSCL5 TOTAL     ACCESS:      20673  HIT:      20673  MISS:          0  HIT %:        100  MISS %:          0   MPKI: 0
PSCL5 LOAD TRANSLATION ACCESS:       7037  HIT:       7037  MISS:          0  HIT %:        100  MISS %:          0   MPKI: 0
PSCL5 TRANSLATION FROM L1D PREFETCHER ACCESS:      13636  HIT:      13636  MISS:          0  HIT %:        100  MISS %:          0   MPKI: 0
PSCL5 PREFETCH  REQUESTED:          0  ISSUED:          0  USEFUL:          0  USELESS:          0
PSCL5 USEFUL LOAD PREFETCHES:          0 PREFETCH ISSUED TO LOWER LEVEL:          0  ACCURACY: -nan
PSCL5 TIMELY PREFETCHES:          0 LATE PREFETCHES: 0 DROPPED PREFETCHES: 0
PSCL5 PREFETCHES SAME FILL-ORIGIN LEVEL: 0 DIFFERENT FILL-ORIGIN LEVEL: 0

PSCL4 TOTAL     ACCESS:      20673  HIT:      20673  MISS:          0  HIT %:        100  MISS %:          0   MPKI: 0
PSCL4 LOAD TRANSLATION ACCESS:       7037  HIT:       7037  MISS:          0  HIT %:        100  MISS %:          0   MPKI: 0
PSCL4 TRANSLATION FROM L1D PREFETCHER ACCESS:      13636  HIT:      13636  MISS:          0  HIT %:        100  MISS %:          0   MPKI: 0
PSCL4 PREFETCH  REQUESTED:          0  ISSUED:          0  USEFUL:          0  USELESS:          0
PSCL4 USEFUL LOAD PREFETCHES:          0 PREFETCH ISSUED TO LOWER LEVEL:          0  ACCURACY: -nan
PSCL4 TIMELY PREFETCHES:          0 LATE PREFETCHES: 0 DROPPED PREFETCHES: 0
PSCL4 PREFETCHES SAME FILL-ORIGIN LEVEL: 0 DIFFERENT FILL-ORIGIN LEVEL: 0

PSCL3 TOTAL     ACCESS:      20673  HIT:      20673  MISS:          0  HIT %:        100  MISS %:          0   MPKI: 0
PSCL3 LOAD TRANSLATION ACCESS:       7037  HIT:       7037  MISS:          0  HIT %:        100  MISS %:          0   MPKI: 0
PSCL3 TRANSLATION FROM L1D PREFETCHER ACCESS:      13636  HIT:      13636  MISS:          0  HIT %:        100  MISS %:          0   MPKI: 0
PSCL3 PREFETCH  REQUESTED:          0  ISSUED:          0  USEFUL:          0  USELESS:          0
PSCL3 USEFUL LOAD PREFETCHES:          0 PREFETCH ISSUED TO LOWER LEVEL:          0  ACCURACY: -nan
PSCL3 TIMELY PREFETCHES:          0 LATE PREFETCHES: 0 DROPPED PREFETCHES: 0
PSCL3 PREFETCHES SAME FILL-ORIGIN LEVEL: 0 DIFFERENT FILL-ORIGIN LEVEL: 0

PSCL2 TOTAL     ACCESS:      20673  HIT:      20673  MISS:          0  HIT %:        100  MISS %:          0   MPKI: 0
PSCL2 LOAD TRANSLATION ACCESS:       7037  HIT:       7037  MISS:          0  HIT %:        100  MISS %:          0   MPKI: 0
PSCL2 TRANSLATION FROM L1D PREFETCHER ACCESS:      13636  HIT:      13636  MISS:          0  HIT %:        100  MISS %:          0   MPKI: 0
PSCL2 PREFETCH  REQUESTED:          0  ISSUED:          0  USEFUL:          0  USELESS:          0
PSCL2 USEFUL LOAD PREFETCHES:          0 PREFETCH ISSUED TO LOWER LEVEL:          0  ACCURACY: -nan
PSCL2 TIMELY PREFETCHES:          0 LATE PREFETCHES: 0 DROPPED PREFETCHES: 0
PSCL2 PREFETCHES SAME FILL-ORIGIN LEVEL: 0 DIFFERENT FILL-ORIGIN LEVEL: 0

LLC TOTAL     ACCESS:     698983  HIT:      69178  MISS:     629805  HIT %:    9.89695  MISS %:     90.103   MPKI: 12.5961
LLC LOAD      ACCESS:     131538  HIT:      13579  MISS:     117959  HIT %:    10.3233  MISS %:    89.6767   MPKI: 2.35918
LLC RFO       ACCESS:      31216  HIT:       5010  MISS:      26206  HIT %:    16.0495  MISS %:    83.9505   MPKI: 0.52412
LLC PREFETCH  ACCESS:     493486  HIT:      13331  MISS:     480155  HIT %:    2.70139  MISS %:    97.2986   MPKI: 9.6031
AGUS PREFETCH L1 MISS: 0
LLC WRITEBACK ACCESS:      38188  HIT:      37147  MISS:       1041  HIT %:     97.274  MISS %:    2.72599   MPKI: 0.02082
LLC LOAD TRANSLATION ACCESS:       2270  HIT:         48  MISS:       2222  HIT %:    2.11454  MISS %:    97.8855   MPKI: 0.04444
LLC TRANSLATION FROM L1D PREFETCHER ACCESS:       2285  HIT:         63  MISS:       2222  HIT %:    2.75711  MISS %:    97.2429   MPKI: 0.04444
LLC PREFETCH  REQUESTED:          0  ISSUED:          0  USEFUL:       4936  USELESS:     478972
LLC USEFUL LOAD PREFETCHES:       4936 PREFETCH ISSUED TO LOWER LEVEL:     480155  ACCURACY: 1.028
LLC TIMELY PREFETCHES:       4936 LATE PREFETCHES: 0 DROPPED PREFETCHES: 0
LLC PREFETCHES SAME FILL-ORIGIN LEVEL: 0 DIFFERENT FILL-ORIGIN LEVEL: 0
LLC AVERAGE MISS LATENCY: 120.579 cycles
LLC RQ	ACCESS:     167309	FORWARD:          0	MERGED:          0	TO_CACHE:     167309
LLC WQ	ACCESS:      38188	FORWARD:          1	MERGED:          0	TO_CACHE:      38188
LLC PQ	ACCESS:     493487	FORWARD:          0	MERGED:          0	TO_CACHE:     493486

LLC Dense regions hint to LLC: 0

RAW hits: 56530
Loads Generated: 12945735
Loads sent to L1D: 12889205
Stores Generated: 858600
Stores sent to L1D: 858601
Major fault: 0 Minor fault: 4120
Allocated PAGES: 4120
Prefetcher final stats
Training Unit Size: 1361
Addr table size: 142996 143931


Triggers: 18821951
Structural address exists: 681405 3.62027
No Prediction: 18140546 96.3797
Prefetches issued: 2021898 10.7422
Useful Prefetches: 454340
Useless Prefetches: 126654
Stream end: 406279
No translation: 408997791
%Stream divergence: 197546 1.04955
Stream divergence -- new stream: 0

DRAM Statistics
 CHANNEL 0
 RQ ROW_BUFFER_HIT:     416004  ROW_BUFFER_MISS:     212759
 DBUS_CONGESTED:        115
 WQ ROW_BUFFER_HIT:       4197  ROW_BUFFER_MISS:      31230  FULL:          0

 AVG_CONGESTED_CYCLE: 4
 All warmup complete: 2
Channel 0 Bank busy for read cycles: 0
Channel 0 Bank busy for write cycles: 0
Channel 0
Rank 0
0banks busy for read cycles: 42037273
0banks busy for write cycles: 15222
1banks busy for read cycles: 7261067
1banks busy for write cycles: 1677845
2banks busy for read cycles: 2493297
2banks busy for write cycles: 650677
3banks busy for read cycles: 1437362
3banks busy for write cycles: 310961
4banks busy for read cycles: 959282
4banks busy for write cycles: 190105
5banks busy for read cycles: 799587
5banks busy for write cycles: 127004
6banks busy for read cycles: 894293
6banks busy for write cycles: 61535
7banks busy for read cycles: 875921
7banks busy for write cycles: 34421
8banks busy for read cycles: 2103061
8banks busy for write cycles: 22369

CPU 0 Branch Prediction Accuracy: 95.9006% MPKI: 3.75384 Average ROB Occupancy at Mispredict: 68.446
Branch types
NOT_BRANCH: 45421448 90.8429%
BRANCH_DIRECT_JUMP: 86243 0.172486%
BRANCH_INDIRECT: 0 0%
BRANCH_CONDITIONAL: 4321570 8.64314%
BRANCH_DIRECT_CALL: 85360 0.17072%
BRANCH_INDIRECT_CALL: 0 0%
BRANCH_RETURN: 85358 0.170716%
BRANCH_OTHER: 0 0%

DRAM PAGES: 1048576
Allocated PAGES: 4120
