
*** ChampSim Multicore Out-of-Order Simulator ***

Warmup Instructions: 50000000
Simulation Instructions: 50000000
Number of CPUs: 1
LLC sets: 2048
LLC ways: 16
Off-chip DRAM Size: 4096 MB Channels: 1 Width: 64-bit Data Rate: 6400 MT/s
CPU 0 runs traces/SPEC-CPU2017/482.sphinx3-234B.champsimtrace.xz
.xz
CPU 0 Bimodal branch predictor
BTB has LRU replacement policy
ITLB has LRU replacement policy
DTLB has LRU replacement policy
STLB has LRU replacement policy
L1I has LRU replacement policy
Ideal ISB Prefetching
L1D has LRU replacement policy
L2C has LRU replacement policy
LLC has LRU replacement policy
Heartbeat CPU 0 instructions: 10000000 cycles: 3096009 heartbeat IPC: 3.22996 cumulative IPC: 3.22996 (Simulation time: 0 hr 5 min 12 sec) 
Heartbeat CPU 0 instructions: 20000000 cycles: 6190953 heartbeat IPC: 3.23108 cumulative IPC: 3.23052 (Simulation time: 0 hr 8 min 20 sec) 
Heartbeat CPU 0 instructions: 30000001 cycles: 9283241 heartbeat IPC: 3.23385 cumulative IPC: 3.23163 (Simulation time: 0 hr 10 min 58 sec) 
Heartbeat CPU 0 instructions: 40000000 cycles: 12413065 heartbeat IPC: 3.19507 cumulative IPC: 3.22241 (Simulation time: 0 hr 13 min 53 sec) 
Heartbeat CPU 0 instructions: 50000000 cycles: 15460312 heartbeat IPC: 3.28165 cumulative IPC: 3.23409 (Simulation time: 0 hr 16 min 23 sec) 

Warmup complete CPU 0 instructions: 50000004 cycles: 15460313 (Simulation time: 0 hr 16 min 23 sec) 

Heartbeat CPU 0 instructions: 60000000 cycles: 27525380 heartbeat IPC: 0.828839 cumulative IPC: 0.828839 (Simulation time: 0 hr 18 min 58 sec) 
Heartbeat CPU 0 instructions: 70000001 cycles: 39008122 heartbeat IPC: 0.870872 cumulative IPC: 0.849336 (Simulation time: 0 hr 21 min 19 sec) 
Heartbeat CPU 0 instructions: 80000000 cycles: 50370574 heartbeat IPC: 0.880092 cumulative IPC: 0.859346 (Simulation time: 0 hr 23 min 29 sec) 
Heartbeat CPU 0 instructions: 90000000 cycles: 61875506 heartbeat IPC: 0.869192 cumulative IPC: 0.861787 (Simulation time: 0 hr 25 min 35 sec) 
Heartbeat CPU 0 instructions: 100000000 cycles: 74205408 heartbeat IPC: 0.811036 cumulative IPC: 0.851135 (Simulation time: 0 hr 27 min 0 sec) 
Finished CPU 0 instructions: 50000000 cycles: 58745112 cumulative IPC: 0.851135 (Simulation time: 0 hr 27 min 0 sec) 

ChampSim completed all CPUs

Region of Interest Statistics

CPU 0 cumulative IPC: 0.851135 instructions: 50000000 cycles: 58745112
ITLB TOTAL     ACCESS:    9667480  HIT:    9667480  MISS:          0  HIT %:        100  MISS %:          0   MPKI: 0
ITLB LOAD TRANSLATION ACCESS:    9667480  HIT:    9667480  MISS:          0  HIT %:        100  MISS %:          0   MPKI: 0
ITLB PREFETCH  REQUESTED:          0  ISSUED:          0  USEFUL:          0  USELESS:          0
ITLB USEFUL LOAD PREFETCHES:          0 PREFETCH ISSUED TO LOWER LEVEL:          0  ACCURACY: -nan
ITLB TIMELY PREFETCHES:          0 LATE PREFETCHES: 0 DROPPED PREFETCHES: 0
ITLB PREFETCHES SAME FILL-ORIGIN LEVEL: 0 DIFFERENT FILL-ORIGIN LEVEL: 0
ITLB AVERAGE MISS LATENCY: -nan cycles
ITLB RQ	ACCESS:   10470384	FORWARD:          0	MERGED:     802904	TO_CACHE:    9667480

DTLB TOTAL     ACCESS:    9049606  HIT:    8987727  MISS:      61879  HIT %:    99.3162  MISS %:   0.683776   MPKI: 1.23758
DTLB LOAD TRANSLATION ACCESS:    9049606  HIT:    8987727  MISS:      61879  HIT %:    99.3162  MISS %:   0.683776   MPKI: 1.23758
DTLB PREFETCH  REQUESTED:          0  ISSUED:          0  USEFUL:          0  USELESS:          0
DTLB USEFUL LOAD PREFETCHES:          0 PREFETCH ISSUED TO LOWER LEVEL:          0  ACCURACY: -nan
DTLB TIMELY PREFETCHES:          0 LATE PREFETCHES: 0 DROPPED PREFETCHES: 0
DTLB PREFETCHES SAME FILL-ORIGIN LEVEL: 0 DIFFERENT FILL-ORIGIN LEVEL: 0
DTLB AVERAGE MISS LATENCY: 19.3961 cycles
DTLB RQ	ACCESS:   10007336	FORWARD:          0	MERGED:     947279	TO_CACHE:    9060057

STLB TOTAL     ACCESS:    4836395  HIT:    4814492  MISS:      21903  HIT %:    99.5471  MISS %:   0.452879   MPKI: 0.43806
STLB LOAD TRANSLATION ACCESS:      61879  HIT:      56820  MISS:       5059  HIT %:    91.8244  MISS %:    8.17563   MPKI: 0.10118
STLB TRANSLATION FROM L1D PREFETCHER ACCESS:    4774516  HIT:    4757672  MISS:      16844  HIT %:    99.6472  MISS %:    0.35279   MPKI: 0.33688
STLB PREFETCH  REQUESTED:          0  ISSUED:          0  USEFUL:      16494  USELESS:        320
STLB USEFUL LOAD PREFETCHES:      16494 PREFETCH ISSUED TO LOWER LEVEL:          0  ACCURACY: inf
STLB TIMELY PREFETCHES:      16494 LATE PREFETCHES: 12 DROPPED PREFETCHES: 0
STLB PREFETCHES SAME FILL-ORIGIN LEVEL: 0 DIFFERENT FILL-ORIGIN LEVEL: 0
STLB AVERAGE MISS LATENCY: 83.5263 cycles
STLB RQ	ACCESS:   16673332	FORWARD:          0	MERGED:   11836420	TO_CACHE:    4836912

STLB Hit, L1D data hit: 0
STLB Hit, L2C data hit: 0
STLB Hit, LLC data hit: 0
STLB Hit, LLC data miss: 0
STLB STLB hints to L2: 0
L1D TOTAL     ACCESS:   25801203  HIT:   24907871  MISS:     893332  HIT %:    96.5376  MISS %:    3.46237   MPKI: 17.8666
L1D LOAD      ACCESS:    9085799  HIT:    8923880  MISS:     161919  HIT %:    98.2179  MISS %:    1.78211   MPKI: 3.23838
L1D RFO       ACCESS:     685575  HIT:     651937  MISS:      33638  HIT %:    95.0935  MISS %:    4.90654   MPKI: 0.67276
L1D PREFETCH  ACCESS:   16029829  HIT:   15332054  MISS:     697775  HIT %:     95.647  MISS %:    4.35298   MPKI: 13.9555
AGUS PREFETCH L1 MISS: 0
L1D PREFETCH  REQUESTED:   62991400  ISSUED:   35967251  USEFUL:     526768  USELESS:     171102
L1D USEFUL LOAD PREFETCHES:     526768 PREFETCH ISSUED TO LOWER LEVEL:     700043  ACCURACY: 75.2479
L1D TIMELY PREFETCHES:     526768 LATE PREFETCHES: 2268 DROPPED PREFETCHES: 0
L1D PREFETCHES SAME FILL-ORIGIN LEVEL: 700043 DIFFERENT FILL-ORIGIN LEVEL: 0
L1D AVERAGE MISS LATENCY: 135.901 cycles
L1D RQ	ACCESS:   12888995	FORWARD:          0	MERGED:    3727584	TO_CACHE:    9150468
L1D WQ	ACCESS:     858601	FORWARD:      10949	MERGED:       1733	TO_CACHE:     856868
L1D PQ	ACCESS:   19355798	FORWARD:          0	MERGED:    2744339	TO_CACHE:   16611453

L1D UNIQUE REGIONS ACCESSED: 0
L1D REGIONS CONFLICTS: 0
L1D Cross Page Prefetch Requests: 3893267
L1D Same Page Prefetch Requests: 32391565
L1D ROI Sum of L1D PQ occupancy: 242737054
L1D PREFETCHES PUSHED FROM L2C: 0
L1I TOTAL     ACCESS:   10470382  HIT:   10470382  MISS:          0  HIT %:        100  MISS %:          0   MPKI: 0
L1I LOAD      ACCESS:   10470382  HIT:   10470382  MISS:          0  HIT %:        100  MISS %:          0   MPKI: 0
L1I PREFETCH  REQUESTED:          0  ISSUED:          0  USEFUL:          0  USELESS:          0
L1I USEFUL LOAD PREFETCHES:          0 PREFETCH ISSUED TO LOWER LEVEL:          0  ACCURACY: -nan
L1I TIMELY PREFETCHES:          0 LATE PREFETCHES: 0 DROPPED PREFETCHES: 0
L1I PREFETCHES SAME FILL-ORIGIN LEVEL: 0 DIFFERENT FILL-ORIGIN LEVEL: 0
L1I AVERAGE MISS LATENCY: -nan cycles
L1I RQ	ACCESS:   12605451	FORWARD:          0	MERGED:    2135067	TO_CACHE:   10470384

BTB TOTAL     ACCESS:    4309219  HIT:    4298926  MISS:      10293  HIT %:    99.7611  MISS %:    0.23886   MPKI: 0.20586
BTB BRANCH_DIRECT_JUMP	ACCESS:      86243  HIT:      86192  MISS:         51
BTB BRANCH_INDIRECT	ACCESS:          0  HIT:          0  MISS:          0
BTB BRANCH_CONDITIONAL	ACCESS:    4052258  HIT:    4052079  MISS:        179
BTB BRANCH_DIRECT_CALL	ACCESS:      85360  HIT:      85282  MISS:         78
BTB BRANCH_INDIRECT_CALL	ACCESS:          0  HIT:          0  MISS:          0
BTB BRANCH_RETURN	ACCESS:      85358  HIT:      75373  MISS:       9985
BTB BRANCH_OTHER ACCESS:          0  HIT:          0  MISS:          0

L2C TOTAL     ACCESS:     957540  HIT:     250579  MISS:     706961  HIT %:     26.169  MISS %:     73.831   MPKI: 14.1392
L2C LOAD      ACCESS:     159651  HIT:      89235  MISS:      70416  HIT %:    55.8938  MISS %:    44.1062   MPKI: 1.40832
L2C DATA LOAD MPKI: 1.40832
L2C INSTRUCTION LOAD MPKI: 0
L2C RFO       ACCESS:      33638  HIT:       2718  MISS:      30920  HIT %:    8.08015  MISS %:    91.9199   MPKI: 0.6184
L2C PREFETCH  ACCESS:     700041  HIT:      99286  MISS:     600755  HIT %:    14.1829  MISS %:    85.8171   MPKI: 12.0151
AGUS PREFETCH L1 MISS: 0
L2C DATA PREFETCH MPKI: 12.0151
L2C INSTRUCTION PREFETCH MPKI: 0
L2C WRITEBACK ACCESS:      42307  HIT:      42171  MISS:        136  HIT %:    99.6785  MISS %:    0.32146   MPKI: 0.00272
L2C LOAD TRANSLATION ACCESS:       5047  HIT:       3243  MISS:       1804  HIT %:     64.256  MISS %:     35.744   MPKI: 0.03608
L2C TRANSLATION FROM L1D PREFETCHER ACCESS:      16856  HIT:      13926  MISS:       2930  HIT %:    82.6175  MISS %:    17.3825   MPKI: 0.0586
L2C PREFETCH  REQUESTED:          0  ISSUED:          0  USEFUL:       9185  USELESS:     594711
L2C USEFUL LOAD PREFETCHES:       9185 PREFETCH ISSUED TO LOWER LEVEL:     600755  ACCURACY: 1.52891
L2C TIMELY PREFETCHES:       9185 LATE PREFETCHES: 0 DROPPED PREFETCHES: 0
L2C PREFETCHES SAME FILL-ORIGIN LEVEL: 0 DIFFERENT FILL-ORIGIN LEVEL: 0
L2C AVERAGE MISS LATENCY: 153.823 cycles
L2C RQ	ACCESS:     215192	FORWARD:          0	MERGED:          0	TO_CACHE:     215192
L2C WQ	ACCESS:      42307	FORWARD:          2	MERGED:          0	TO_CACHE:      42307
L2C PQ	ACCESS:     700043	FORWARD:          0	MERGED:          0	TO_CACHE:     700041

L2C Instructions Evicting Data 0
L2C Translations Evicting Data 4724
L2C Data Evicting Data 697367
L2C Instructions Evicting Instructions 0
L2C Translations Evicting Instructions 0
L2C Data Evicting Instructions 0
L2C Instructions Evicting Translations 0
L2C Translations Evicting Translations 10
L2C Data Evicting Translations 4724
L2C Dense regions hint from L2: 0
PSCL5 TOTAL     ACCESS:      21903  HIT:      21903  MISS:          0  HIT %:        100  MISS %:          0   MPKI: 0
PSCL5 LOAD TRANSLATION ACCESS:       5047  HIT:       5047  MISS:          0  HIT %:        100  MISS %:          0   MPKI: 0
PSCL5 TRANSLATION FROM L1D PREFETCHER ACCESS:      16856  HIT:      16856  MISS:          0  HIT %:        100  MISS %:          0   MPKI: 0
PSCL5 PREFETCH  REQUESTED:          0  ISSUED:          0  USEFUL:          0  USELESS:          0
PSCL5 USEFUL LOAD PREFETCHES:          0 PREFETCH ISSUED TO LOWER LEVEL:          0  ACCURACY: -nan
PSCL5 TIMELY PREFETCHES:          0 LATE PREFETCHES: 0 DROPPED PREFETCHES: 0
PSCL5 PREFETCHES SAME FILL-ORIGIN LEVEL: 0 DIFFERENT FILL-ORIGIN LEVEL: 0

PSCL4 TOTAL     ACCESS:      21903  HIT:      21903  MISS:          0  HIT %:        100  MISS %:          0   MPKI: 0
PSCL4 LOAD TRANSLATION ACCESS:       5047  HIT:       5047  MISS:          0  HIT %:        100  MISS %:          0   MPKI: 0
PSCL4 TRANSLATION FROM L1D PREFETCHER ACCESS:      16856  HIT:      16856  MISS:          0  HIT %:        100  MISS %:          0   MPKI: 0
PSCL4 PREFETCH  REQUESTED:          0  ISSUED:          0  USEFUL:          0  USELESS:          0
PSCL4 USEFUL LOAD PREFETCHES:          0 PREFETCH ISSUED TO LOWER LEVEL:          0  ACCURACY: -nan
PSCL4 TIMELY PREFETCHES:          0 LATE PREFETCHES: 0 DROPPED PREFETCHES: 0
PSCL4 PREFETCHES SAME FILL-ORIGIN LEVEL: 0 DIFFERENT FILL-ORIGIN LEVEL: 0

PSCL3 TOTAL     ACCESS:      21903  HIT:      21903  MISS:          0  HIT %:        100  MISS %:          0   MPKI: 0
PSCL3 LOAD TRANSLATION ACCESS:       5047  HIT:       5047  MISS:          0  HIT %:        100  MISS %:          0   MPKI: 0
PSCL3 TRANSLATION FROM L1D PREFETCHER ACCESS:      16856  HIT:      16856  MISS:          0  HIT %:        100  MISS %:          0   MPKI: 0
PSCL3 PREFETCH  REQUESTED:          0  ISSUED:          0  USEFUL:          0  USELESS:          0
PSCL3 USEFUL LOAD PREFETCHES:          0 PREFETCH ISSUED TO LOWER LEVEL:          0  ACCURACY: -nan
PSCL3 TIMELY PREFETCHES:          0 LATE PREFETCHES: 0 DROPPED PREFETCHES: 0
PSCL3 PREFETCHES SAME FILL-ORIGIN LEVEL: 0 DIFFERENT FILL-ORIGIN LEVEL: 0

PSCL2 TOTAL     ACCESS:      21903  HIT:      21903  MISS:          0  HIT %:        100  MISS %:          0   MPKI: 0
PSCL2 LOAD TRANSLATION ACCESS:       5047  HIT:       5047  MISS:          0  HIT %:        100  MISS %:          0   MPKI: 0
PSCL2 TRANSLATION FROM L1D PREFETCHER ACCESS:      16856  HIT:      16856  MISS:          0  HIT %:        100  MISS %:          0   MPKI: 0
PSCL2 PREFETCH  REQUESTED:          0  ISSUED:          0  USEFUL:          0  USELESS:          0
PSCL2 USEFUL LOAD PREFETCHES:          0 PREFETCH ISSUED TO LOWER LEVEL:          0  ACCURACY: -nan
PSCL2 TIMELY PREFETCHES:          0 LATE PREFETCHES: 0 DROPPED PREFETCHES: 0
PSCL2 PREFETCHES SAME FILL-ORIGIN LEVEL: 0 DIFFERENT FILL-ORIGIN LEVEL: 0

LLC TOTAL     ACCESS:     745089  HIT:      67945  MISS:     677144  HIT %:    9.11904  MISS %:     90.881   MPKI: 13.5429
LLC LOAD      ACCESS:      70416  HIT:      14502  MISS:      55914  HIT %:    20.5948  MISS %:    79.4052   MPKI: 1.11828
LLC RFO       ACCESS:      30920  HIT:       4911  MISS:      26009  HIT %:    15.8829  MISS %:    84.1171   MPKI: 0.52018
LLC PREFETCH  ACCESS:     600755  HIT:      11096  MISS:     589659  HIT %:    1.84701  MISS %:     98.153   MPKI: 11.7932
AGUS PREFETCH L1 MISS: 0
LLC WRITEBACK ACCESS:      38264  HIT:      37280  MISS:        984  HIT %:    97.4284  MISS %:    2.57161   MPKI: 0.01968
LLC LOAD TRANSLATION ACCESS:       1804  HIT:         56  MISS:       1748  HIT %:    3.10421  MISS %:    96.8958   MPKI: 0.03496
LLC TRANSLATION FROM L1D PREFETCHER ACCESS:       2930  HIT:        100  MISS:       2830  HIT %:    3.41297  MISS %:     96.587   MPKI: 0.0566
LLC PREFETCH  REQUESTED:          0  ISSUED:          0  USEFUL:       4768  USELESS:     589737
LLC USEFUL LOAD PREFETCHES:       4768 PREFETCH ISSUED TO LOWER LEVEL:     589659  ACCURACY: 0.808603
LLC TIMELY PREFETCHES:       4768 LATE PREFETCHES: 0 DROPPED PREFETCHES: 0
LLC PREFETCHES SAME FILL-ORIGIN LEVEL: 0 DIFFERENT FILL-ORIGIN LEVEL: 0
LLC AVERAGE MISS LATENCY: 129.281 cycles
LLC RQ	ACCESS:     106070	FORWARD:          0	MERGED:          0	TO_CACHE:     106070
LLC WQ	ACCESS:      38264	FORWARD:          0	MERGED:          0	TO_CACHE:      38264
LLC PQ	ACCESS:     600755	FORWARD:          0	MERGED:          0	TO_CACHE:     600755

LLC Dense regions hint to LLC: 0

RAW hits: 56740
Loads Generated: 12945735
Loads sent to L1D: 12888995
Stores Generated: 858600
Stores sent to L1D: 858601
Major fault: 0 Minor fault: 4120
Allocated PAGES: 4120
Prefetcher final stats
Training Unit Size: 504
Addr table size: 142878 142894


Triggers: 19105454
Structural address exists: 15968125 83.5789
No Prediction: 3137329 16.4211
Prefetches issued: 36284832 189.919
Useful Prefetches: 526768
Useless Prefetches: 171102
Stream end: 5814283
No translation: 993001946
%Stream divergence: 86878 0.454729
Stream divergence -- new stream: 0

DRAM Statistics
 CHANNEL 0
 RQ ROW_BUFFER_HIT:     405432  ROW_BUFFER_MISS:     270717
 DBUS_CONGESTED:       1825
 WQ ROW_BUFFER_HIT:      12843  ROW_BUFFER_MISS:      23189  FULL:          0

 AVG_CONGESTED_CYCLE: 4
 All warmup complete: 2
Channel 0 Bank busy for read cycles: 0
Channel 0 Bank busy for write cycles: 0
Channel 0
Rank 0
0banks busy for read cycles: 22822381
0banks busy for write cycles: 12735
1banks busy for read cycles: 16074483
1banks busy for write cycles: 2189835
2banks busy for read cycles: 9149023
2banks busy for write cycles: 832871
3banks busy for read cycles: 3254754
3banks busy for write cycles: 420062
4banks busy for read cycles: 1076981
4banks busy for write cycles: 259116
5banks busy for read cycles: 646331
5banks busy for write cycles: 176204
6banks busy for read cycles: 599015
6banks busy for write cycles: 145838
7banks busy for read cycles: 432606
7banks busy for write cycles: 129658
8banks busy for read cycles: 323876
8banks busy for write cycles: 199344

CPU 0 Branch Prediction Accuracy: 95.9006% MPKI: 3.75384 Average ROB Occupancy at Mispredict: 58.6298
Branch types
NOT_BRANCH: 45421448 90.8429%
BRANCH_DIRECT_JUMP: 86243 0.172486%
BRANCH_INDIRECT: 0 0%
BRANCH_CONDITIONAL: 4321570 8.64314%
BRANCH_DIRECT_CALL: 85360 0.17072%
BRANCH_INDIRECT_CALL: 0 0%
BRANCH_RETURN: 85358 0.170716%
BRANCH_OTHER: 0 0%

DRAM PAGES: 1048576
Allocated PAGES: 4120
