
*** ChampSim Multicore Out-of-Order Simulator ***

Warmup Instructions: 50000000
Simulation Instructions: 50000000
Number of CPUs: 1
LLC sets: 2048
LLC ways: 16
Off-chip DRAM Size: 4096 MB Channels: 1 Width: 64-bit Data Rate: 6400 MT/s
CPU 0 runs traces/SPEC-CPU2017/602.gcc_s-2226B.champsimtrace.xz
.xz
CPU 0 Bimodal branch predictor
BTB has LRU replacement policy
ITLB has LRU replacement policy
DTLB has LRU replacement policy
STLB has LRU replacement policy
L1I has LRU replacement policy
Ideal ISB Prefetching
L1D has LRU replacement policy
L2C has LRU replacement policy
LLC has LRU replacement policy
Heartbeat CPU 0 instructions: 10000001 cycles: 3846051 heartbeat IPC: 2.60007 cumulative IPC: 2.60007 (Simulation time: 0 hr 4 min 20 sec) 
Heartbeat CPU 0 instructions: 20000000 cycles: 7694643 heartbeat IPC: 2.59835 cumulative IPC: 2.59921 (Simulation time: 0 hr 9 min 10 sec) 
Heartbeat CPU 0 instructions: 30000001 cycles: 11538325 heartbeat IPC: 2.60167 cumulative IPC: 2.60003 (Simulation time: 0 hr 14 min 17 sec) 
Heartbeat CPU 0 instructions: 40000000 cycles: 15345928 heartbeat IPC: 2.62632 cumulative IPC: 2.60655 (Simulation time: 0 hr 18 min 31 sec) 
Heartbeat CPU 0 instructions: 50000000 cycles: 19090852 heartbeat IPC: 2.67028 cumulative IPC: 2.61906 (Simulation time: 0 hr 20 min 40 sec) 

Warmup complete CPU 0 instructions: 50000004 cycles: 19090853 (Simulation time: 0 hr 20 min 40 sec) 

Heartbeat CPU 0 instructions: 60000000 cycles: 45003809 heartbeat IPC: 0.385907 cumulative IPC: 0.385907 (Simulation time: 0 hr 22 min 50 sec) 
Heartbeat CPU 0 instructions: 70000000 cycles: 71247671 heartbeat IPC: 0.381041 cumulative IPC: 0.383459 (Simulation time: 0 hr 25 min 4 sec) 
Heartbeat CPU 0 instructions: 80000000 cycles: 97884301 heartbeat IPC: 0.375423 cumulative IPC: 0.380742 (Simulation time: 0 hr 27 min 20 sec) 
Heartbeat CPU 0 instructions: 90000001 cycles: 124306031 heartbeat IPC: 0.378476 cumulative IPC: 0.380173 (Simulation time: 0 hr 29 min 31 sec) 
Heartbeat CPU 0 instructions: 100000000 cycles: 150454879 heartbeat IPC: 0.382426 cumulative IPC: 0.380622 (Simulation time: 0 hr 31 min 44 sec) 
Finished CPU 0 instructions: 50000001 cycles: 131364046 cumulative IPC: 0.380622 (Simulation time: 0 hr 31 min 44 sec) 

ChampSim completed all CPUs

Region of Interest Statistics

CPU 0 cumulative IPC: 0.380622 instructions: 50000001 cycles: 131364046
ITLB TOTAL     ACCESS:   11231759  HIT:   11231759  MISS:          0  HIT %:        100  MISS %:          0   MPKI: 0
ITLB LOAD TRANSLATION ACCESS:   11231759  HIT:   11231759  MISS:          0  HIT %:        100  MISS %:          0   MPKI: 0
ITLB PREFETCH  REQUESTED:          0  ISSUED:          0  USEFUL:          0  USELESS:          0
ITLB USEFUL LOAD PREFETCHES:          0 PREFETCH ISSUED TO LOWER LEVEL:          0  ACCURACY: -nan
ITLB TIMELY PREFETCHES:          0 LATE PREFETCHES: 0 DROPPED PREFETCHES: 0
ITLB PREFETCHES SAME FILL-ORIGIN LEVEL: 0 DIFFERENT FILL-ORIGIN LEVEL: 0
ITLB AVERAGE MISS LATENCY: -nan cycles
ITLB RQ	ACCESS:   11404620	FORWARD:          0	MERGED:     172861	TO_CACHE:   11231759

DTLB TOTAL     ACCESS:    7735784  HIT:    7667297  MISS:      68487  HIT %:    99.1147  MISS %:   0.885327   MPKI: 1.36974
DTLB LOAD TRANSLATION ACCESS:    7735784  HIT:    7667297  MISS:      68487  HIT %:    99.1147  MISS %:   0.885327   MPKI: 1.36974
DTLB PREFETCH  REQUESTED:          0  ISSUED:          0  USEFUL:          0  USELESS:          0
DTLB USEFUL LOAD PREFETCHES:          0 PREFETCH ISSUED TO LOWER LEVEL:          0  ACCURACY: -nan
DTLB TIMELY PREFETCHES:          0 LATE PREFETCHES: 0 DROPPED PREFETCHES: 0
DTLB PREFETCHES SAME FILL-ORIGIN LEVEL: 0 DIFFERENT FILL-ORIGIN LEVEL: 0
DTLB AVERAGE MISS LATENCY: 13.4974 cycles
DTLB RQ	ACCESS:    9098551	FORWARD:          0	MERGED:    1362734	TO_CACHE:    7735817

STLB TOTAL     ACCESS:    5372625  HIT:    5306577  MISS:      66048  HIT %:    98.7707  MISS %:    1.22934   MPKI: 1.32096
STLB LOAD TRANSLATION ACCESS:      68487  HIT:      63103  MISS:       5384  HIT %:    92.1387  MISS %:    7.86135   MPKI: 0.10768
STLB TRANSLATION FROM L1D PREFETCHER ACCESS:    5304138  HIT:    5243474  MISS:      60664  HIT %:    98.8563  MISS %:    1.14371   MPKI: 1.21328
STLB PREFETCH  REQUESTED:          0  ISSUED:          0  USEFUL:      60661  USELESS:          3
STLB USEFUL LOAD PREFETCHES:      60661 PREFETCH ISSUED TO LOWER LEVEL:          0  ACCURACY: inf
STLB TIMELY PREFETCHES:      60661 LATE PREFETCHES: 2503 DROPPED PREFETCHES: 0
STLB PREFETCHES SAME FILL-ORIGIN LEVEL: 0 DIFFERENT FILL-ORIGIN LEVEL: 0
STLB AVERAGE MISS LATENCY: 78.5945 cycles
STLB RQ	ACCESS:   27301710	FORWARD:          0	MERGED:   21909869	TO_CACHE:    5391841

STLB Hit, L1D data hit: 0
STLB Hit, L2C data hit: 0
STLB Hit, LLC data hit: 0
STLB Hit, LLC data miss: 0
STLB STLB hints to L2: 0
L1D TOTAL     ACCESS:   25822209  HIT:   22299270  MISS:    3522939  HIT %:    86.3569  MISS %:    13.6431   MPKI: 70.4588
L1D LOAD      ACCESS:    8400690  HIT:    8196715  MISS:     203975  HIT %:    97.5719  MISS %:    2.42807   MPKI: 4.0795
L1D RFO       ACCESS:     654898  HIT:     653715  MISS:       1183  HIT %:    99.8194  MISS %:   0.180639   MPKI: 0.02366
L1D PREFETCH  ACCESS:   16766621  HIT:   13448840  MISS:    3317781  HIT %:     80.212  MISS %:     19.788   MPKI: 66.3556
AGUS PREFETCH L1 MISS: 0
L1D PREFETCH  REQUESTED:   57266134  ISSUED:   55808683  USEFUL:    3301052  USELESS:      16719
L1D USEFUL LOAD PREFETCHES:    3301052 PREFETCH ISSUED TO LOWER LEVEL:    3395557  ACCURACY: 97.2168
L1D TIMELY PREFETCHES:    3301052 LATE PREFETCHES: 77772 DROPPED PREFETCHES: 0
L1D PREFETCHES SAME FILL-ORIGIN LEVEL: 3395557 DIFFERENT FILL-ORIGIN LEVEL: 0
L1D AVERAGE MISS LATENCY: 123.218 cycles
L1D RQ	ACCESS:   17950367	FORWARD:          0	MERGED:    9505333	TO_CACHE:    8443649
L1D WQ	ACCESS:     726205	FORWARD:       1385	MERGED:      71303	TO_CACHE:     654902
L1D PQ	ACCESS:   28575460	FORWARD:          0	MERGED:    1342237	TO_CACHE:   27233223

L1D UNIQUE REGIONS ACCESSED: 0
L1D REGIONS CONFLICTS: 0
L1D Cross Page Prefetch Requests: 5972347
L1D Same Page Prefetch Requests: 30117675
L1D ROI Sum of L1D PQ occupancy: 421280863
L1D PREFETCHES PUSHED FROM L2C: 0
L1I TOTAL     ACCESS:   11404619  HIT:   11404619  MISS:          0  HIT %:        100  MISS %:          0   MPKI: 0
L1I LOAD      ACCESS:   11404619  HIT:   11404619  MISS:          0  HIT %:        100  MISS %:          0   MPKI: 0
L1I PREFETCH  REQUESTED:          0  ISSUED:          0  USEFUL:          0  USELESS:          0
L1I USEFUL LOAD PREFETCHES:          0 PREFETCH ISSUED TO LOWER LEVEL:          0  ACCURACY: -nan
L1I TIMELY PREFETCHES:          0 LATE PREFETCHES: 0 DROPPED PREFETCHES: 0
L1I PREFETCHES SAME FILL-ORIGIN LEVEL: 0 DIFFERENT FILL-ORIGIN LEVEL: 0
L1I AVERAGE MISS LATENCY: -nan cycles
L1I RQ	ACCESS:   16097208	FORWARD:          0	MERGED:    4692588	TO_CACHE:   11404620

BTB TOTAL     ACCESS:   11928195  HIT:   11928097  MISS:         98  HIT %:    99.9992  MISS %: 0.000821583   MPKI: 0.00196
BTB BRANCH_DIRECT_JUMP	ACCESS:     168848  HIT:     168822  MISS:         26
BTB BRANCH_INDIRECT	ACCESS:          0  HIT:          0  MISS:          0
BTB BRANCH_CONDITIONAL	ACCESS:   11592637  HIT:   11592588  MISS:         49
BTB BRANCH_DIRECT_CALL	ACCESS:      83355  HIT:      83345  MISS:         10
BTB BRANCH_INDIRECT_CALL	ACCESS:          0  HIT:          0  MISS:          0
BTB BRANCH_RETURN	ACCESS:      83355  HIT:      83342  MISS:         13
BTB BRANCH_OTHER ACCESS:          0  HIT:          0  MISS:          0

L2C TOTAL     ACCESS:    3596132  HIT:      74939  MISS:    3521193  HIT %:    2.08388  MISS %:    97.9161   MPKI: 70.4239
L2C LOAD      ACCESS:     126201  HIT:       2737  MISS:     123464  HIT %:    2.16876  MISS %:    97.8312   MPKI: 2.46928
L2C DATA LOAD MPKI: 2.46928
L2C INSTRUCTION LOAD MPKI: 0
L2C RFO       ACCESS:       1183  HIT:          2  MISS:       1181  HIT %:   0.169062  MISS %:    99.8309   MPKI: 0.02362
L2C PREFETCH  ACCESS:    3395553  HIT:      14646  MISS:    3380907  HIT %:   0.431329  MISS %:    99.5687   MPKI: 67.6181
AGUS PREFETCH L1 MISS: 0
L2C DATA PREFETCH MPKI: 67.6181
L2C INSTRUCTION PREFETCH MPKI: 0
L2C WRITEBACK ACCESS:       5623  HIT:       5601  MISS:         22  HIT %:    99.6087  MISS %:    0.39125   MPKI: 0.00044
L2C LOAD TRANSLATION ACCESS:       3060  HIT:       1611  MISS:       1449  HIT %:    52.6471  MISS %:    47.3529   MPKI: 0.02898
L2C TRANSLATION FROM L1D PREFETCHER ACCESS:      64512  HIT:      50342  MISS:      14170  HIT %:    78.0351  MISS %:    21.9649   MPKI: 0.2834
L2C PREFETCH  REQUESTED:          0  ISSUED:          0  USEFUL:      12700  USELESS:    3382085
L2C USEFUL LOAD PREFETCHES:      12700 PREFETCH ISSUED TO LOWER LEVEL:    3380911  ACCURACY: 0.375638
L2C TIMELY PREFETCHES:      12700 LATE PREFETCHES: 0 DROPPED PREFETCHES: 0
L2C PREFETCHES SAME FILL-ORIGIN LEVEL: 0 DIFFERENT FILL-ORIGIN LEVEL: 0
L2C AVERAGE MISS LATENCY: 108.902 cycles
L2C RQ	ACCESS:     194958	FORWARD:          0	MERGED:          0	TO_CACHE:     194956
L2C WQ	ACCESS:       5623	FORWARD:          2	MERGED:          0	TO_CACHE:       5623
L2C PQ	ACCESS:    3395557	FORWARD:          0	MERGED:          0	TO_CACHE:    3395557

L2C Instructions Evicting Data 0
L2C Translations Evicting Data 15567
L2C Data Evicting Data 3489985
L2C Instructions Evicting Instructions 0
L2C Translations Evicting Instructions 0
L2C Data Evicting Instructions 0
L2C Instructions Evicting Translations 0
L2C Translations Evicting Translations 52
L2C Data Evicting Translations 15567
L2C Dense regions hint from L2: 0
PSCL5 TOTAL     ACCESS:      66048  HIT:      66048  MISS:          0  HIT %:        100  MISS %:          0   MPKI: 0
PSCL5 LOAD TRANSLATION ACCESS:       2881  HIT:       2881  MISS:          0  HIT %:        100  MISS %:          0   MPKI: 0
PSCL5 TRANSLATION FROM L1D PREFETCHER ACCESS:      63167  HIT:      63167  MISS:          0  HIT %:        100  MISS %:          0   MPKI: 0
PSCL5 PREFETCH  REQUESTED:          0  ISSUED:          0  USEFUL:          0  USELESS:          0
PSCL5 USEFUL LOAD PREFETCHES:          0 PREFETCH ISSUED TO LOWER LEVEL:          0  ACCURACY: -nan
PSCL5 TIMELY PREFETCHES:          0 LATE PREFETCHES: 0 DROPPED PREFETCHES: 0
PSCL5 PREFETCHES SAME FILL-ORIGIN LEVEL: 0 DIFFERENT FILL-ORIGIN LEVEL: 0

PSCL4 TOTAL     ACCESS:      66048  HIT:      66048  MISS:          0  HIT %:        100  MISS %:          0   MPKI: 0
PSCL4 LOAD TRANSLATION ACCESS:       2881  HIT:       2881  MISS:          0  HIT %:        100  MISS %:          0   MPKI: 0
PSCL4 TRANSLATION FROM L1D PREFETCHER ACCESS:      63167  HIT:      63167  MISS:          0  HIT %:        100  MISS %:          0   MPKI: 0
PSCL4 PREFETCH  REQUESTED:          0  ISSUED:          0  USEFUL:          0  USELESS:          0
PSCL4 USEFUL LOAD PREFETCHES:          0 PREFETCH ISSUED TO LOWER LEVEL:          0  ACCURACY: -nan
PSCL4 TIMELY PREFETCHES:          0 LATE PREFETCHES: 0 DROPPED PREFETCHES: 0
PSCL4 PREFETCHES SAME FILL-ORIGIN LEVEL: 0 DIFFERENT FILL-ORIGIN LEVEL: 0

PSCL3 TOTAL     ACCESS:      66030  HIT:      66023  MISS:          7  HIT %:    99.9894  MISS %:  0.0106012   MPKI: 0.00014
PSCL3 LOAD TRANSLATION ACCESS:       2884  HIT:       2877  MISS:          7  HIT %:    99.7573  MISS %:   0.242718   MPKI: 0.00014
PSCL3 TRANSLATION FROM L1D PREFETCHER ACCESS:      63146  HIT:      63146  MISS:          0  HIT %:        100  MISS %:          0   MPKI: 0
PSCL3 PREFETCH  REQUESTED:          0  ISSUED:          0  USEFUL:          0  USELESS:          0
PSCL3 USEFUL LOAD PREFETCHES:          0 PREFETCH ISSUED TO LOWER LEVEL:          0  ACCURACY: -nan
PSCL3 TIMELY PREFETCHES:          0 LATE PREFETCHES: 0 DROPPED PREFETCHES: 0
PSCL3 PREFETCHES SAME FILL-ORIGIN LEVEL: 0 DIFFERENT FILL-ORIGIN LEVEL: 0

PSCL2 TOTAL     ACCESS:      66048  HIT:      64530  MISS:       1518  HIT %:    97.7017  MISS %:    2.29833   MPKI: 0.03036
PSCL2 LOAD TRANSLATION ACCESS:       4221  HIT:       2703  MISS:       1518  HIT %:     64.037  MISS %:     35.963   MPKI: 0.03036
PSCL2 TRANSLATION FROM L1D PREFETCHER ACCESS:      61827  HIT:      61827  MISS:          0  HIT %:        100  MISS %:          0   MPKI: 0
PSCL2 PREFETCH  REQUESTED:          0  ISSUED:          0  USEFUL:          0  USELESS:          0
PSCL2 USEFUL LOAD PREFETCHES:          0 PREFETCH ISSUED TO LOWER LEVEL:          0  ACCURACY: -nan
PSCL2 TIMELY PREFETCHES:          0 LATE PREFETCHES: 0 DROPPED PREFETCHES: 0
PSCL2 PREFETCHES SAME FILL-ORIGIN LEVEL: 0 DIFFERENT FILL-ORIGIN LEVEL: 0

LLC TOTAL     ACCESS:    3526788  HIT:       7788  MISS:    3519000  HIT %:   0.220824  MISS %:    99.7792   MPKI: 70.38
LLC LOAD      ACCESS:     123464  HIT:        413  MISS:     123051  HIT %:    0.33451  MISS %:    99.6655   MPKI: 2.46102
LLC RFO       ACCESS:       1181  HIT:          0  MISS:       1181  HIT %:          0  MISS %:        100   MPKI: 0.02362
LLC PREFETCH  ACCESS:    3380907  HIT:        916  MISS:    3379991  HIT %:  0.0270933  MISS %:    99.9729   MPKI: 67.5998
AGUS PREFETCH L1 MISS: 0
LLC WRITEBACK ACCESS:       5617  HIT:       5599  MISS:         18  HIT %:    99.6795  MISS %:   0.320456   MPKI: 0.00036
LLC LOAD TRANSLATION ACCESS:       1449  HIT:        156  MISS:       1293  HIT %:     10.766  MISS %:     89.234   MPKI: 0.02586
LLC TRANSLATION FROM L1D PREFETCHER ACCESS:      14170  HIT:        704  MISS:      13466  HIT %:    4.96824  MISS %:    95.0318   MPKI: 0.26932
LLC PREFETCH  REQUESTED:          0  ISSUED:          0  USEFUL:        626  USELESS:    3391832
LLC USEFUL LOAD PREFETCHES:        626 PREFETCH ISSUED TO LOWER LEVEL:    3379994  ACCURACY: 0.0185207
LLC TIMELY PREFETCHES:        626 LATE PREFETCHES: 0 DROPPED PREFETCHES: 0
LLC PREFETCHES SAME FILL-ORIGIN LEVEL: 0 DIFFERENT FILL-ORIGIN LEVEL: 0
LLC AVERAGE MISS LATENCY: 78.9509 cycles
LLC RQ	ACCESS:     140264	FORWARD:          0	MERGED:          0	TO_CACHE:     140264
LLC WQ	ACCESS:       5617	FORWARD:          0	MERGED:          0	TO_CACHE:       5617
LLC PQ	ACCESS:    3380911	FORWARD:          0	MERGED:          0	TO_CACHE:    3380911

LLC Dense regions hint to LLC: 0

RAW hits: 4235
Loads Generated: 17954602
Loads sent to L1D: 17950367
Stores Generated: 726205
Stores sent to L1D: 726205
Major fault: 0 Minor fault: 48887
Allocated PAGES: 48887
Prefetcher final stats
Training Unit Size: 146
Addr table size: 2535739 2537758


Triggers: 12303318
Structural address exists: 9519978 77.3773
No Prediction: 2783340 22.6227
Prefetches issued: 36090022 293.336
Useful Prefetches: 3301052
Useless Prefetches: 16719
Stream end: 4459726
No translation: 27143146
%Stream divergence: 353188 2.87067
Stream divergence -- new stream: 0

DRAM Statistics
 CHANNEL 0
 RQ ROW_BUFFER_HIT:    3274175  ROW_BUFFER_MISS:     244808
 DBUS_CONGESTED:       1738
 WQ ROW_BUFFER_HIT:        535  ROW_BUFFER_MISS:       5098  FULL:          0

 AVG_CONGESTED_CYCLE: 4
 All warmup complete: 2
Channel 0 Bank busy for read cycles: 0
Channel 0 Bank busy for write cycles: 0
Channel 0
Rank 0
0banks busy for read cycles: 33831324
0banks busy for write cycles: 3068
1banks busy for read cycles: 27690306
1banks busy for write cycles: 443412
2banks busy for read cycles: 52525288
2banks busy for write cycles: 189923
3banks busy for read cycles: 10275281
3banks busy for write cycles: 84710
4banks busy for read cycles: 2029191
4banks busy for write cycles: 35850
5banks busy for read cycles: 1018823
5banks busy for write cycles: 14373
6banks busy for read cycles: 690196
6banks busy for write cycles: 6307
7banks busy for read cycles: 677468
7banks busy for write cycles: 1113
8banks busy for read cycles: 1847414
8banks busy for write cycles: 0

CPU 0 Branch Prediction Accuracy: 99.1302% MPKI: 3.1024 Average ROB Occupancy at Mispredict: 95.7455
Branch types
NOT_BRANCH: 32166917 64.3338%
BRANCH_DIRECT_JUMP: 168848 0.337696%
BRANCH_INDIRECT: 0 0%
BRANCH_CONDITIONAL: 17497543 34.9951%
BRANCH_DIRECT_CALL: 83355 0.16671%
BRANCH_INDIRECT_CALL: 0 0%
BRANCH_RETURN: 83355 0.16671%
BRANCH_OTHER: 0 0%

DRAM PAGES: 1048576
Allocated PAGES: 48887
