
*** ChampSim Multicore Out-of-Order Simulator ***

Warmup Instructions: 50000000
Simulation Instructions: 50000000
Number of CPUs: 1
LLC sets: 2048
LLC ways: 16
Off-chip DRAM Size: 4096 MB Channels: 1 Width: 64-bit Data Rate: 6400 MT/s
CPU 0 runs traces/SPEC-CPU2017/602.gcc_s-2226B.champsimtrace.xz
.xz
CPU 0 Bimodal branch predictor
BTB has LRU replacement policy
ITLB has LRU replacement policy
DTLB has LRU replacement policy
STLB has LRU replacement policy
L1I has LRU replacement policy
Ideal ISB Prefetching
L1D has LRU replacement policy
L2C has LRU replacement policy
LLC has LRU replacement policy
Heartbeat CPU 0 instructions: 10000001 cycles: 3844790 heartbeat IPC: 2.60092 cumulative IPC: 2.60092 (Simulation time: 0 hr 1 min 59 sec) 
Heartbeat CPU 0 instructions: 20000000 cycles: 7692373 heartbeat IPC: 2.59903 cumulative IPC: 2.59998 (Simulation time: 0 hr 4 min 7 sec) 
Heartbeat CPU 0 instructions: 30000001 cycles: 11535190 heartbeat IPC: 2.60226 cumulative IPC: 2.60074 (Simulation time: 0 hr 6 min 20 sec) 
Heartbeat CPU 0 instructions: 40000000 cycles: 15345063 heartbeat IPC: 2.62476 cumulative IPC: 2.6067 (Simulation time: 0 hr 8 min 2 sec) 
Heartbeat CPU 0 instructions: 50000000 cycles: 19097830 heartbeat IPC: 2.6647 cumulative IPC: 2.6181 (Simulation time: 0 hr 8 min 45 sec) 

Warmup complete CPU 0 instructions: 50000004 cycles: 19097831 (Simulation time: 0 hr 8 min 45 sec) 

Heartbeat CPU 0 instructions: 60000000 cycles: 52513011 heartbeat IPC: 0.299265 cumulative IPC: 0.299265 (Simulation time: 0 hr 9 min 52 sec) 
Heartbeat CPU 0 instructions: 70000000 cycles: 86155831 heartbeat IPC: 0.29724 cumulative IPC: 0.298249 (Simulation time: 0 hr 11 min 0 sec) 
Heartbeat CPU 0 instructions: 80000000 cycles: 120058978 heartbeat IPC: 0.294958 cumulative IPC: 0.297144 (Simulation time: 0 hr 12 min 9 sec) 
Heartbeat CPU 0 instructions: 90000001 cycles: 153883571 heartbeat IPC: 0.295643 cumulative IPC: 0.296767 (Simulation time: 0 hr 13 min 17 sec) 
Heartbeat CPU 0 instructions: 100000000 cycles: 187449541 heartbeat IPC: 0.297921 cumulative IPC: 0.296997 (Simulation time: 0 hr 14 min 26 sec) 
Finished CPU 0 instructions: 50000001 cycles: 168351730 cumulative IPC: 0.296997 (Simulation time: 0 hr 14 min 26 sec) 

ChampSim completed all CPUs

Region of Interest Statistics

CPU 0 cumulative IPC: 0.296997 instructions: 50000001 cycles: 168351730
ITLB TOTAL     ACCESS:   11439862  HIT:   11439862  MISS:          0  HIT %:        100  MISS %:          0   MPKI: 0
ITLB LOAD TRANSLATION ACCESS:   11439862  HIT:   11439862  MISS:          0  HIT %:        100  MISS %:          0   MPKI: 0
ITLB PREFETCH  REQUESTED:          0  ISSUED:          0  USEFUL:          0  USELESS:          0
ITLB USEFUL LOAD PREFETCHES:          0 PREFETCH ISSUED TO LOWER LEVEL:          0  ACCURACY: -nan
ITLB TIMELY PREFETCHES:          0 LATE PREFETCHES: 0 DROPPED PREFETCHES: 0
ITLB PREFETCHES SAME FILL-ORIGIN LEVEL: 0 DIFFERENT FILL-ORIGIN LEVEL: 0
ITLB AVERAGE MISS LATENCY: -nan cycles
ITLB RQ	ACCESS:   11612722	FORWARD:          0	MERGED:     172860	TO_CACHE:   11439862

DTLB TOTAL     ACCESS:    7734586  HIT:    7666100  MISS:      68486  HIT %:    99.1145  MISS %:   0.885451   MPKI: 1.36972
DTLB LOAD TRANSLATION ACCESS:    7734586  HIT:    7666100  MISS:      68486  HIT %:    99.1145  MISS %:   0.885451   MPKI: 1.36972
DTLB PREFETCH  REQUESTED:          0  ISSUED:          0  USEFUL:          0  USELESS:          0
DTLB USEFUL LOAD PREFETCHES:          0 PREFETCH ISSUED TO LOWER LEVEL:          0  ACCURACY: -nan
DTLB TIMELY PREFETCHES:          0 LATE PREFETCHES: 0 DROPPED PREFETCHES: 0
DTLB PREFETCHES SAME FILL-ORIGIN LEVEL: 0 DIFFERENT FILL-ORIGIN LEVEL: 0
DTLB AVERAGE MISS LATENCY: 19.0537 cycles
DTLB RQ	ACCESS:    9097214	FORWARD:          0	MERGED:    1362589	TO_CACHE:    7734625

STLB TOTAL     ACCESS:     681165  HIT:     615058  MISS:      66107  HIT %:     90.295  MISS %:    9.70499   MPKI: 1.32214
STLB LOAD TRANSLATION ACCESS:      68486  HIT:      59730  MISS:       8756  HIT %:    87.2149  MISS %:    12.7851   MPKI: 0.17512
STLB TRANSLATION FROM L1D PREFETCHER ACCESS:     612679  HIT:     555328  MISS:      57351  HIT %:    90.6393  MISS %:    9.36069   MPKI: 1.14702
STLB PREFETCH  REQUESTED:          0  ISSUED:          0  USEFUL:      57336  USELESS:         15
STLB USEFUL LOAD PREFETCHES:      57336 PREFETCH ISSUED TO LOWER LEVEL:          0  ACCURACY: inf
STLB TIMELY PREFETCHES:      57336 LATE PREFETCHES: 1377 DROPPED PREFETCHES: 0
STLB PREFETCHES SAME FILL-ORIGIN LEVEL: 0 DIFFERENT FILL-ORIGIN LEVEL: 0
STLB AVERAGE MISS LATENCY: 80.9745 cycles
STLB RQ	ACCESS:    3485459	FORWARD:          0	MERGED:    2801154	TO_CACHE:     684305

STLB Hit, L1D data hit: 0
STLB Hit, L2C data hit: 0
STLB Hit, LLC data hit: 0
STLB Hit, LLC data miss: 0
STLB STLB hints to L2: 0
L1D TOTAL     ACCESS:   12156184  HIT:    8589833  MISS:    3566351  HIT %:    70.6622  MISS %:    29.3378   MPKI: 71.327
L1D LOAD      ACCESS:    8280095  HIT:    7750992  MISS:     529103  HIT %:    93.6099  MISS %:    6.39006   MPKI: 10.5821
L1D RFO       ACCESS:     654898  HIT:     653675  MISS:       1223  HIT %:    99.8133  MISS %:   0.186747   MPKI: 0.02446
L1D PREFETCH  ACCESS:    3221191  HIT:     185166  MISS:    3036025  HIT %:    5.74837  MISS %:    94.2516   MPKI: 60.7205
AGUS PREFETCH L1 MISS: 0
L1D PREFETCH  REQUESTED:    6894958  ISSUED:    6850666  USEFUL:    2975266  USELESS:      60753
L1D USEFUL LOAD PREFETCHES:    2975266 PREFETCH ISSUED TO LOWER LEVEL:    3097234  ACCURACY: 96.062
L1D TIMELY PREFETCHES:    2975266 LATE PREFETCHES: 61212 DROPPED PREFETCHES: 0
L1D PREFETCHES SAME FILL-ORIGIN LEVEL: 3097234 DIFFERENT FILL-ORIGIN LEVEL: 0
L1D AVERAGE MISS LATENCY: 125.723 cycles
L1D RQ	ACCESS:   17950364	FORWARD:          0	MERGED:    9506667	TO_CACHE:    8442312
L1D WQ	ACCESS:     726205	FORWARD:       1385	MERGED:      71303	TO_CACHE:     654902
L1D PQ	ACCESS:    3433693	FORWARD:          0	MERGED:      16720	TO_CACHE:    3416973

L1D UNIQUE REGIONS ACCESSED: 0
L1D REGIONS CONFLICTS: 0
L1D Cross Page Prefetch Requests: 706579
L1D Same Page Prefetch Requests: 3733235
L1D ROI Sum of L1D PQ occupancy: 65643366
L1D PREFETCHES PUSHED FROM L2C: 0
L1I TOTAL     ACCESS:   11612722  HIT:   11612722  MISS:          0  HIT %:        100  MISS %:          0   MPKI: 0
L1I LOAD      ACCESS:   11612722  HIT:   11612722  MISS:          0  HIT %:        100  MISS %:          0   MPKI: 0
L1I PREFETCH  REQUESTED:          0  ISSUED:          0  USEFUL:          0  USELESS:          0
L1I USEFUL LOAD PREFETCHES:          0 PREFETCH ISSUED TO LOWER LEVEL:          0  ACCURACY: -nan
L1I TIMELY PREFETCHES:          0 LATE PREFETCHES: 0 DROPPED PREFETCHES: 0
L1I PREFETCHES SAME FILL-ORIGIN LEVEL: 0 DIFFERENT FILL-ORIGIN LEVEL: 0
L1I AVERAGE MISS LATENCY: -nan cycles
L1I RQ	ACCESS:   16443959	FORWARD:          0	MERGED:    4831237	TO_CACHE:   11612722

BTB TOTAL     ACCESS:   11928196  HIT:   11928098  MISS:         98  HIT %:    99.9992  MISS %: 0.000821583   MPKI: 0.00196
BTB BRANCH_DIRECT_JUMP	ACCESS:     168848  HIT:     168822  MISS:         26
BTB BRANCH_INDIRECT	ACCESS:          0  HIT:          0  MISS:          0
BTB BRANCH_CONDITIONAL	ACCESS:   11592638  HIT:   11592589  MISS:         49
BTB BRANCH_DIRECT_CALL	ACCESS:      83355  HIT:      83345  MISS:         10
BTB BRANCH_INDIRECT_CALL	ACCESS:          0  HIT:          0  MISS:          0
BTB BRANCH_RETURN	ACCESS:      83355  HIT:      83342  MISS:         13
BTB BRANCH_OTHER ACCESS:          0  HIT:          0  MISS:          0

L2C TOTAL     ACCESS:    3639648  HIT:     118843  MISS:    3520805  HIT %:    3.26523  MISS %:    96.7348   MPKI: 70.4161
L2C LOAD      ACCESS:     467889  HIT:      10258  MISS:     457631  HIT %:     2.1924  MISS %:    97.8076   MPKI: 9.15262
L2C DATA LOAD MPKI: 9.15262
L2C INSTRUCTION LOAD MPKI: 0
L2C RFO       ACCESS:       1223  HIT:         34  MISS:       1189  HIT %:    2.78005  MISS %:      97.22   MPKI: 0.02378
L2C PREFETCH  ACCESS:    3097236  HIT:      51005  MISS:    3046231  HIT %:    1.64679  MISS %:    98.3532   MPKI: 60.9246
AGUS PREFETCH L1 MISS: 0
L2C DATA PREFETCH MPKI: 60.9246
L2C INSTRUCTION PREFETCH MPKI: 0
L2C WRITEBACK ACCESS:       5620  HIT:       5602  MISS:         18  HIT %:    99.6797  MISS %:   0.320285   MPKI: 0.00036
L2C LOAD TRANSLATION ACCESS:       7620  HIT:       5517  MISS:       2103  HIT %:    72.4016  MISS %:    27.5984   MPKI: 0.04206
L2C TRANSLATION FROM L1D PREFETCHER ACCESS:      60060  HIT:      46427  MISS:      13633  HIT %:     77.301  MISS %:     22.699   MPKI: 0.27266
L2C PREFETCH  REQUESTED:          0  ISSUED:          0  USEFUL:      19906  USELESS:    3039991
L2C USEFUL LOAD PREFETCHES:      19906 PREFETCH ISSUED TO LOWER LEVEL:    3046229  ACCURACY: 0.653464
L2C TIMELY PREFETCHES:      19906 LATE PREFETCHES: 0 DROPPED PREFETCHES: 0
L2C PREFETCHES SAME FILL-ORIGIN LEVEL: 0 DIFFERENT FILL-ORIGIN LEVEL: 0
L2C AVERAGE MISS LATENCY: 111.568 cycles
L2C RQ	ACCESS:     536794	FORWARD:          0	MERGED:          0	TO_CACHE:     536792
L2C WQ	ACCESS:       5620	FORWARD:          2	MERGED:          0	TO_CACHE:       5620
L2C PQ	ACCESS:    3097234	FORWARD:          0	MERGED:          0	TO_CACHE:    3097234

L2C Instructions Evicting Data 0
L2C Translations Evicting Data 15689
L2C Data Evicting Data 3489364
L2C Instructions Evicting Instructions 0
L2C Translations Evicting Instructions 0
L2C Data Evicting Instructions 0
L2C Instructions Evicting Translations 0
L2C Translations Evicting Translations 47
L2C Data Evicting Translations 15687
L2C Dense regions hint from L2: 0
PSCL5 TOTAL     ACCESS:      66107  HIT:      66107  MISS:          0  HIT %:        100  MISS %:          0   MPKI: 0
PSCL5 LOAD TRANSLATION ACCESS:       7379  HIT:       7379  MISS:          0  HIT %:        100  MISS %:          0   MPKI: 0
PSCL5 TRANSLATION FROM L1D PREFETCHER ACCESS:      58728  HIT:      58728  MISS:          0  HIT %:        100  MISS %:          0   MPKI: 0
PSCL5 PREFETCH  REQUESTED:          0  ISSUED:          0  USEFUL:          0  USELESS:          0
PSCL5 USEFUL LOAD PREFETCHES:          0 PREFETCH ISSUED TO LOWER LEVEL:          0  ACCURACY: -nan
PSCL5 TIMELY PREFETCHES:          0 LATE PREFETCHES: 0 DROPPED PREFETCHES: 0
PSCL5 PREFETCHES SAME FILL-ORIGIN LEVEL: 0 DIFFERENT FILL-ORIGIN LEVEL: 0

PSCL4 TOTAL     ACCESS:      66107  HIT:      66107  MISS:          0  HIT %:        100  MISS %:          0   MPKI: 0
PSCL4 LOAD TRANSLATION ACCESS:       7379  HIT:       7379  MISS:          0  HIT %:        100  MISS %:          0   MPKI: 0
PSCL4 TRANSLATION FROM L1D PREFETCHER ACCESS:      58728  HIT:      58728  MISS:          0  HIT %:        100  MISS %:          0   MPKI: 0
PSCL4 PREFETCH  REQUESTED:          0  ISSUED:          0  USEFUL:          0  USELESS:          0
PSCL4 USEFUL LOAD PREFETCHES:          0 PREFETCH ISSUED TO LOWER LEVEL:          0  ACCURACY: -nan
PSCL4 TIMELY PREFETCHES:          0 LATE PREFETCHES: 0 DROPPED PREFETCHES: 0
PSCL4 PREFETCHES SAME FILL-ORIGIN LEVEL: 0 DIFFERENT FILL-ORIGIN LEVEL: 0

PSCL3 TOTAL     ACCESS:      66090  HIT:      66083  MISS:          7  HIT %:    99.9894  MISS %:  0.0105916   MPKI: 0.00014
PSCL3 LOAD TRANSLATION ACCESS:       7382  HIT:       7375  MISS:          7  HIT %:    99.9052  MISS %:  0.0948253   MPKI: 0.00014
PSCL3 TRANSLATION FROM L1D PREFETCHER ACCESS:      58708  HIT:      58708  MISS:          0  HIT %:        100  MISS %:          0   MPKI: 0
PSCL3 PREFETCH  REQUESTED:          0  ISSUED:          0  USEFUL:          0  USELESS:          0
PSCL3 USEFUL LOAD PREFETCHES:          0 PREFETCH ISSUED TO LOWER LEVEL:          0  ACCURACY: -nan
PSCL3 TIMELY PREFETCHES:          0 LATE PREFETCHES: 0 DROPPED PREFETCHES: 0
PSCL3 PREFETCHES SAME FILL-ORIGIN LEVEL: 0 DIFFERENT FILL-ORIGIN LEVEL: 0

PSCL2 TOTAL     ACCESS:      66107  HIT:      64540  MISS:       1567  HIT %:    97.6296  MISS %:     2.3704   MPKI: 0.03134
PSCL2 LOAD TRANSLATION ACCESS:       8706  HIT:       7139  MISS:       1567  HIT %:    82.0009  MISS %:    17.9991   MPKI: 0.03134
PSCL2 TRANSLATION FROM L1D PREFETCHER ACCESS:      57401  HIT:      57401  MISS:          0  HIT %:        100  MISS %:          0   MPKI: 0
PSCL2 PREFETCH  REQUESTED:          0  ISSUED:          0  USEFUL:          0  USELESS:          0
PSCL2 USEFUL LOAD PREFETCHES:          0 PREFETCH ISSUED TO LOWER LEVEL:          0  ACCURACY: -nan
PSCL2 TIMELY PREFETCHES:          0 LATE PREFETCHES: 0 DROPPED PREFETCHES: 0
PSCL2 PREFETCHES SAME FILL-ORIGIN LEVEL: 0 DIFFERENT FILL-ORIGIN LEVEL: 0

LLC TOTAL     ACCESS:    3526402  HIT:       7442  MISS:    3518960  HIT %:   0.211037  MISS %:     99.789   MPKI: 70.3792
LLC LOAD      ACCESS:     457631  HIT:        272  MISS:     457359  HIT %:  0.0594365  MISS %:    99.9406   MPKI: 9.14718
LLC RFO       ACCESS:       1189  HIT:          0  MISS:       1189  HIT %:          0  MISS %:        100   MPKI: 0.02378
LLC PREFETCH  ACCESS:    3046231  HIT:        687  MISS:    3045544  HIT %:  0.0225525  MISS %:    99.9774   MPKI: 60.9109
AGUS PREFETCH L1 MISS: 0
LLC WRITEBACK ACCESS:       5615  HIT:       5598  MISS:         17  HIT %:    99.6972  MISS %:    0.30276   MPKI: 0.00034
LLC LOAD TRANSLATION ACCESS:       2103  HIT:        174  MISS:       1929  HIT %:    8.27389  MISS %:    91.7261   MPKI: 0.03858
LLC TRANSLATION FROM L1D PREFETCHER ACCESS:      13633  HIT:        711  MISS:      12922  HIT %:    5.21529  MISS %:    94.7847   MPKI: 0.25844
LLC PREFETCH  REQUESTED:          0  ISSUED:          0  USEFUL:        543  USELESS:    3058093
LLC USEFUL LOAD PREFETCHES:        543 PREFETCH ISSUED TO LOWER LEVEL:    3045543  ACCURACY: 0.0178293
LLC TIMELY PREFETCHES:        543 LATE PREFETCHES: 0 DROPPED PREFETCHES: 0
LLC PREFETCHES SAME FILL-ORIGIN LEVEL: 0 DIFFERENT FILL-ORIGIN LEVEL: 0
LLC AVERAGE MISS LATENCY: 81.6113 cycles
LLC RQ	ACCESS:     474556	FORWARD:          0	MERGED:          0	TO_CACHE:     474556
LLC WQ	ACCESS:       5615	FORWARD:          0	MERGED:          0	TO_CACHE:       5615
LLC PQ	ACCESS:    3046229	FORWARD:          0	MERGED:          0	TO_CACHE:    3046229

LLC Dense regions hint to LLC: 0

RAW hits: 4241
Loads Generated: 17954605
Loads sent to L1D: 17950364
Stores Generated: 726205
Stores sent to L1D: 726205
Major fault: 0 Minor fault: 48887
Allocated PAGES: 48887
Prefetcher final stats
Training Unit Size: 146
Addr table size: 2535849 2537871


Triggers: 12264980
Structural address exists: 1599145 13.0383
No Prediction: 10665835 86.9617
Prefetches issued: 4439814 36.1991
Useful Prefetches: 2975266
Useless Prefetches: 60753
Stream end: 1036573
No translation: 992526629
%Stream divergence: 352698 2.87565
Stream divergence -- new stream: 0

DRAM Statistics
 CHANNEL 0
 RQ ROW_BUFFER_HIT:    3289297  ROW_BUFFER_MISS:     229645
 DBUS_CONGESTED:         39
 WQ ROW_BUFFER_HIT:        182  ROW_BUFFER_MISS:       5451  FULL:          0

 AVG_CONGESTED_CYCLE: 5
 All warmup complete: 2
Channel 0 Bank busy for read cycles: 0
Channel 0 Bank busy for write cycles: 0
Channel 0
Rank 0
0banks busy for read cycles: 110652892
0banks busy for write cycles: 3839
1banks busy for read cycles: 26814772
1banks busy for write cycles: 462270
2banks busy for read cycles: 5566689
2banks busy for write cycles: 139844
3banks busy for read cycles: 2995457
3banks busy for write cycles: 47178
4banks busy for read cycles: 2306203
4banks busy for write cycles: 12693
5banks busy for read cycles: 1868821
5banks busy for write cycles: 3062
6banks busy for read cycles: 1744379
6banks busy for write cycles: 543
7banks busy for read cycles: 2920212
7banks busy for write cycles: 144
8banks busy for read cycles: 12812733
8banks busy for write cycles: 0

CPU 0 Branch Prediction Accuracy: 99.1302% MPKI: 3.1024 Average ROB Occupancy at Mispredict: 98.0882
Branch types
NOT_BRANCH: 32166917 64.3338%
BRANCH_DIRECT_JUMP: 168848 0.337696%
BRANCH_INDIRECT: 0 0%
BRANCH_CONDITIONAL: 17497544 34.9951%
BRANCH_DIRECT_CALL: 83355 0.16671%
BRANCH_INDIRECT_CALL: 0 0%
BRANCH_RETURN: 83355 0.16671%
BRANCH_OTHER: 0 0%

DRAM PAGES: 1048576
Allocated PAGES: 48887
