
*** ChampSim Multicore Out-of-Order Simulator ***

Warmup Instructions: 50000000
Simulation Instructions: 50000000
Number of CPUs: 1
LLC sets: 2048
LLC ways: 16
Off-chip DRAM Size: 4096 MB Channels: 1 Width: 64-bit Data Rate: 6400 MT/s
CPU 0 runs traces/SPEC-CPU2017/602.gcc_s-2226B.champsimtrace.xz
.xz
CPU 0 Bimodal branch predictor
BTB has LRU replacement policy
ITLB has LRU replacement policy
DTLB has LRU replacement policy
STLB has LRU replacement policy
L1I has LRU replacement policy
Ideal ISB Prefetching
L1D has LRU replacement policy
L2C has LRU replacement policy
LLC has LRU replacement policy
Heartbeat CPU 0 instructions: 10000001 cycles: 3846194 heartbeat IPC: 2.59997 cumulative IPC: 2.59997 (Simulation time: 0 hr 2 min 42 sec) 
Heartbeat CPU 0 instructions: 20000000 cycles: 7695193 heartbeat IPC: 2.59808 cumulative IPC: 2.59903 (Simulation time: 0 hr 5 min 42 sec) 
Heartbeat CPU 0 instructions: 30000001 cycles: 11539027 heartbeat IPC: 2.60157 cumulative IPC: 2.59987 (Simulation time: 0 hr 8 min 46 sec) 
Heartbeat CPU 0 instructions: 40000000 cycles: 15345058 heartbeat IPC: 2.62741 cumulative IPC: 2.6067 (Simulation time: 0 hr 11 min 5 sec) 
Heartbeat CPU 0 instructions: 50000000 cycles: 19085766 heartbeat IPC: 2.67329 cumulative IPC: 2.61975 (Simulation time: 0 hr 12 min 3 sec) 

Warmup complete CPU 0 instructions: 50000004 cycles: 19085767 (Simulation time: 0 hr 12 min 3 sec) 

Heartbeat CPU 0 instructions: 60000000 cycles: 42924823 heartbeat IPC: 0.41948 cumulative IPC: 0.41948 (Simulation time: 0 hr 13 min 18 sec) 
Heartbeat CPU 0 instructions: 70000000 cycles: 66762741 heartbeat IPC: 0.4195 cumulative IPC: 0.41949 (Simulation time: 0 hr 14 min 34 sec) 
Heartbeat CPU 0 instructions: 80000000 cycles: 90624614 heartbeat IPC: 0.419079 cumulative IPC: 0.419353 (Simulation time: 0 hr 15 min 53 sec) 
Heartbeat CPU 0 instructions: 90000001 cycles: 114395185 heartbeat IPC: 0.420688 cumulative IPC: 0.419686 (Simulation time: 0 hr 17 min 11 sec) 
Heartbeat CPU 0 instructions: 100000000 cycles: 138187380 heartbeat IPC: 0.420306 cumulative IPC: 0.41981 (Simulation time: 0 hr 18 min 30 sec) 
Finished CPU 0 instructions: 50000001 cycles: 119101633 cumulative IPC: 0.41981 (Simulation time: 0 hr 18 min 30 sec) 

ChampSim completed all CPUs

Region of Interest Statistics

CPU 0 cumulative IPC: 0.41981 instructions: 50000001 cycles: 119101633
ITLB TOTAL     ACCESS:   11125684  HIT:   11125684  MISS:          0  HIT %:        100  MISS %:          0   MPKI: 0
ITLB LOAD TRANSLATION ACCESS:   11125684  HIT:   11125684  MISS:          0  HIT %:        100  MISS %:          0   MPKI: 0
ITLB PREFETCH  REQUESTED:          0  ISSUED:          0  USEFUL:          0  USELESS:          0
ITLB USEFUL LOAD PREFETCHES:          0 PREFETCH ISSUED TO LOWER LEVEL:          0  ACCURACY: -nan
ITLB TIMELY PREFETCHES:          0 LATE PREFETCHES: 0 DROPPED PREFETCHES: 0
ITLB PREFETCHES SAME FILL-ORIGIN LEVEL: 0 DIFFERENT FILL-ORIGIN LEVEL: 0
ITLB AVERAGE MISS LATENCY: -nan cycles
ITLB RQ	ACCESS:   11298545	FORWARD:          0	MERGED:     172861	TO_CACHE:   11125684

DTLB TOTAL     ACCESS:    7735296  HIT:    7666810  MISS:      68486  HIT %:    99.1146  MISS %:    0.88537   MPKI: 1.36972
DTLB LOAD TRANSLATION ACCESS:    7735296  HIT:    7666810  MISS:      68486  HIT %:    99.1146  MISS %:    0.88537   MPKI: 1.36972
DTLB PREFETCH  REQUESTED:          0  ISSUED:          0  USEFUL:          0  USELESS:          0
DTLB USEFUL LOAD PREFETCHES:          0 PREFETCH ISSUED TO LOWER LEVEL:          0  ACCURACY: -nan
DTLB TIMELY PREFETCHES:          0 LATE PREFETCHES: 0 DROPPED PREFETCHES: 0
DTLB PREFETCHES SAME FILL-ORIGIN LEVEL: 0 DIFFERENT FILL-ORIGIN LEVEL: 0
DTLB AVERAGE MISS LATENCY: 8.75262 cycles
DTLB RQ	ACCESS:    9099664	FORWARD:          0	MERGED:    1364341	TO_CACHE:    7735323

STLB TOTAL     ACCESS:    5658082  HIT:    5591998  MISS:      66084  HIT %:     98.832  MISS %:    1.16796   MPKI: 1.32168
STLB LOAD TRANSLATION ACCESS:      68486  HIT:      66733  MISS:       1753  HIT %:    97.4404  MISS %:    2.55965   MPKI: 0.03506
STLB TRANSLATION FROM L1D PREFETCHER ACCESS:    5589596  HIT:    5525265  MISS:      64331  HIT %:    98.8491  MISS %:    1.15091   MPKI: 1.28662
STLB PREFETCH  REQUESTED:          0  ISSUED:          0  USEFUL:      64316  USELESS:         14
STLB USEFUL LOAD PREFETCHES:      64316 PREFETCH ISSUED TO LOWER LEVEL:          0  ACCURACY: inf
STLB TIMELY PREFETCHES:      64316 LATE PREFETCHES: 1019 DROPPED PREFETCHES: 0
STLB PREFETCHES SAME FILL-ORIGIN LEVEL: 0 DIFFERENT FILL-ORIGIN LEVEL: 0
STLB AVERAGE MISS LATENCY: 82.7533 cycles
STLB RQ	ACCESS:   30163217	FORWARD:          0	MERGED:   24488972	TO_CACHE:    5674245

STLB Hit, L1D data hit: 0
STLB Hit, L2C data hit: 0
STLB Hit, LLC data hit: 0
STLB Hit, LLC data miss: 0
STLB STLB hints to L2: 0
L1D TOTAL     ACCESS:   27128859  HIT:   23597785  MISS:    3531074  HIT %:    86.9841  MISS %:    13.0159   MPKI: 70.6215
L1D LOAD      ACCESS:    8413254  HIT:    8284590  MISS:     128664  HIT %:    98.4707  MISS %:     1.5293   MPKI: 2.57328
L1D RFO       ACCESS:     654897  HIT:     653549  MISS:       1348  HIT %:    99.7942  MISS %:   0.205834   MPKI: 0.02696
L1D PREFETCH  ACCESS:   18060708  HIT:   14659646  MISS:    3401062  HIT %:    81.1687  MISS %:    18.8313   MPKI: 68.0212
AGUS PREFETCH L1 MISS: 0
L1D PREFETCH  REQUESTED:   64075085  ISSUED:   61715328  USEFUL:    3377922  USELESS:      23131
L1D USEFUL LOAD PREFETCHES:    3377922 PREFETCH ISSUED TO LOWER LEVEL:    3501568  ACCURACY: 96.4688
L1D TIMELY PREFETCHES:    3377922 LATE PREFETCHES: 100502 DROPPED PREFETCHES: 0
L1D PREFETCHES SAME FILL-ORIGIN LEVEL: 3501568 DIFFERENT FILL-ORIGIN LEVEL: 0
L1D AVERAGE MISS LATENCY: 122.959 cycles
L1D RQ	ACCESS:   17950360	FORWARD:          0	MERGED:    9504211	TO_CACHE:    8444763
L1D WQ	ACCESS:     726205	FORWARD:       1386	MERGED:      71304	TO_CACHE:     654901
L1D PQ	ACCESS:   31620597	FORWARD:          0	MERGED:    1525866	TO_CACHE:   30094731

L1D UNIQUE REGIONS ACCESSED: 0
L1D REGIONS CONFLICTS: 0
L1D Cross Page Prefetch Requests: 6428578
L1D Same Page Prefetch Requests: 32978417
L1D ROI Sum of L1D PQ occupancy: 468301815
L1D PREFETCHES PUSHED FROM L2C: 0
L1I TOTAL     ACCESS:   11298544  HIT:   11298544  MISS:          0  HIT %:        100  MISS %:          0   MPKI: 0
L1I LOAD      ACCESS:   11298544  HIT:   11298544  MISS:          0  HIT %:        100  MISS %:          0   MPKI: 0
L1I PREFETCH  REQUESTED:          0  ISSUED:          0  USEFUL:          0  USELESS:          0
L1I USEFUL LOAD PREFETCHES:          0 PREFETCH ISSUED TO LOWER LEVEL:          0  ACCURACY: -nan
L1I TIMELY PREFETCHES:          0 LATE PREFETCHES: 0 DROPPED PREFETCHES: 0
L1I PREFETCHES SAME FILL-ORIGIN LEVEL: 0 DIFFERENT FILL-ORIGIN LEVEL: 0
L1I AVERAGE MISS LATENCY: -nan cycles
L1I RQ	ACCESS:   15972030	FORWARD:          0	MERGED:    4673485	TO_CACHE:   11298545

BTB TOTAL     ACCESS:   11928195  HIT:   11928097  MISS:         98  HIT %:    99.9992  MISS %: 0.000821583   MPKI: 0.00196
BTB BRANCH_DIRECT_JUMP	ACCESS:     168848  HIT:     168822  MISS:         26
BTB BRANCH_INDIRECT	ACCESS:          0  HIT:          0  MISS:          0
BTB BRANCH_CONDITIONAL	ACCESS:   11592637  HIT:   11592588  MISS:         49
BTB BRANCH_DIRECT_CALL	ACCESS:      83355  HIT:      83345  MISS:         10
BTB BRANCH_INDIRECT_CALL	ACCESS:          0  HIT:          0  MISS:          0
BTB BRANCH_RETURN	ACCESS:      83355  HIT:      83342  MISS:         13
BTB BRANCH_OTHER ACCESS:          0  HIT:          0  MISS:          0

L2C TOTAL     ACCESS:    3604361  HIT:      82071  MISS:    3522290  HIT %:    2.27699  MISS %:     97.723   MPKI: 70.4458
L2C LOAD      ACCESS:      28156  HIT:       4576  MISS:      23580  HIT %:    16.2523  MISS %:    83.7477   MPKI: 0.4716
L2C DATA LOAD MPKI: 0.4716
L2C INSTRUCTION LOAD MPKI: 0
L2C RFO       ACCESS:       1348  HIT:          0  MISS:       1348  HIT %:          0  MISS %:        100   MPKI: 0.02696
L2C PREFETCH  ACCESS:    3501564  HIT:      20204  MISS:    3481360  HIT %:   0.576999  MISS %:     99.423   MPKI: 69.6272
AGUS PREFETCH L1 MISS: 0
L2C DATA PREFETCH MPKI: 69.6272
L2C INSTRUCTION PREFETCH MPKI: 0
L2C WRITEBACK ACCESS:       5652  HIT:       5309  MISS:        343  HIT %:    93.9314  MISS %:    6.06865   MPKI: 0.00686
L2C LOAD TRANSLATION ACCESS:        841  HIT:        273  MISS:        568  HIT %:    32.4614  MISS %:    67.5386   MPKI: 0.01136
L2C TRANSLATION FROM L1D PREFETCHER ACCESS:      66800  HIT:      51709  MISS:      15091  HIT %:    77.4087  MISS %:    22.5913   MPKI: 0.30182
L2C PREFETCH  REQUESTED:          0  ISSUED:          0  USEFUL:      14224  USELESS:    3481852
L2C USEFUL LOAD PREFETCHES:      14224 PREFETCH ISSUED TO LOWER LEVEL:    3481364  ACCURACY: 0.408575
L2C TIMELY PREFETCHES:      14224 LATE PREFETCHES: 0 DROPPED PREFETCHES: 0
L2C PREFETCHES SAME FILL-ORIGIN LEVEL: 0 DIFFERENT FILL-ORIGIN LEVEL: 0
L2C AVERAGE MISS LATENCY: 109.016 cycles
L2C RQ	ACCESS:      97151	FORWARD:          0	MERGED:          0	TO_CACHE:      97145
L2C WQ	ACCESS:       5652	FORWARD:          6	MERGED:          0	TO_CACHE:       5652
L2C PQ	ACCESS:    3501568	FORWARD:          0	MERGED:          0	TO_CACHE:    3501568

L2C Instructions Evicting Data 0
L2C Translations Evicting Data 15590
L2C Data Evicting Data 3490698
L2C Instructions Evicting Instructions 0
L2C Translations Evicting Instructions 0
L2C Data Evicting Instructions 0
L2C Instructions Evicting Translations 0
L2C Translations Evicting Translations 69
L2C Data Evicting Translations 15590
L2C Dense regions hint from L2: 0
PSCL5 TOTAL     ACCESS:      66084  HIT:      66084  MISS:          0  HIT %:        100  MISS %:          0   MPKI: 0
PSCL5 LOAD TRANSLATION ACCESS:        734  HIT:        734  MISS:          0  HIT %:        100  MISS %:          0   MPKI: 0
PSCL5 TRANSLATION FROM L1D PREFETCHER ACCESS:      65350  HIT:      65350  MISS:          0  HIT %:        100  MISS %:          0   MPKI: 0
PSCL5 PREFETCH  REQUESTED:          0  ISSUED:          0  USEFUL:          0  USELESS:          0
PSCL5 USEFUL LOAD PREFETCHES:          0 PREFETCH ISSUED TO LOWER LEVEL:          0  ACCURACY: -nan
PSCL5 TIMELY PREFETCHES:          0 LATE PREFETCHES: 0 DROPPED PREFETCHES: 0
PSCL5 PREFETCHES SAME FILL-ORIGIN LEVEL: 0 DIFFERENT FILL-ORIGIN LEVEL: 0

PSCL4 TOTAL     ACCESS:      66084  HIT:      66084  MISS:          0  HIT %:        100  MISS %:          0   MPKI: 0
PSCL4 LOAD TRANSLATION ACCESS:        734  HIT:        734  MISS:          0  HIT %:        100  MISS %:          0   MPKI: 0
PSCL4 TRANSLATION FROM L1D PREFETCHER ACCESS:      65350  HIT:      65350  MISS:          0  HIT %:        100  MISS %:          0   MPKI: 0
PSCL4 PREFETCH  REQUESTED:          0  ISSUED:          0  USEFUL:          0  USELESS:          0
PSCL4 USEFUL LOAD PREFETCHES:          0 PREFETCH ISSUED TO LOWER LEVEL:          0  ACCURACY: -nan
PSCL4 TIMELY PREFETCHES:          0 LATE PREFETCHES: 0 DROPPED PREFETCHES: 0
PSCL4 PREFETCHES SAME FILL-ORIGIN LEVEL: 0 DIFFERENT FILL-ORIGIN LEVEL: 0

PSCL3 TOTAL     ACCESS:      66076  HIT:      66069  MISS:          7  HIT %:    99.9894  MISS %:  0.0105939   MPKI: 0.00014
PSCL3 LOAD TRANSLATION ACCESS:        739  HIT:        732  MISS:          7  HIT %:    99.0528  MISS %:   0.947226   MPKI: 0.00014
PSCL3 TRANSLATION FROM L1D PREFETCHER ACCESS:      65337  HIT:      65337  MISS:          0  HIT %:        100  MISS %:          0   MPKI: 0
PSCL3 PREFETCH  REQUESTED:          0  ISSUED:          0  USEFUL:          0  USELESS:          0
PSCL3 USEFUL LOAD PREFETCHES:          0 PREFETCH ISSUED TO LOWER LEVEL:          0  ACCURACY: -nan
PSCL3 TIMELY PREFETCHES:          0 LATE PREFETCHES: 0 DROPPED PREFETCHES: 0
PSCL3 PREFETCHES SAME FILL-ORIGIN LEVEL: 0 DIFFERENT FILL-ORIGIN LEVEL: 0

PSCL2 TOTAL     ACCESS:      66084  HIT:      64533  MISS:       1551  HIT %:     97.653  MISS %:    2.34701   MPKI: 0.03102
PSCL2 LOAD TRANSLATION ACCESS:       2179  HIT:        628  MISS:       1551  HIT %:    28.8206  MISS %:    71.1794   MPKI: 0.03102
PSCL2 TRANSLATION FROM L1D PREFETCHER ACCESS:      63905  HIT:      63905  MISS:          0  HIT %:        100  MISS %:          0   MPKI: 0
PSCL2 PREFETCH  REQUESTED:          0  ISSUED:          0  USEFUL:          0  USELESS:          0
PSCL2 USEFUL LOAD PREFETCHES:          0 PREFETCH ISSUED TO LOWER LEVEL:          0  ACCURACY: -nan
PSCL2 TIMELY PREFETCHES:          0 LATE PREFETCHES: 0 DROPPED PREFETCHES: 0
PSCL2 PREFETCHES SAME FILL-ORIGIN LEVEL: 0 DIFFERENT FILL-ORIGIN LEVEL: 0

LLC TOTAL     ACCESS:    3527592  HIT:       8394  MISS:    3519198  HIT %:   0.237953  MISS %:     99.762   MPKI: 70.384
LLC LOAD      ACCESS:      23580  HIT:        817  MISS:      22763  HIT %:     3.4648  MISS %:    96.5352   MPKI: 0.45526
LLC RFO       ACCESS:       1348  HIT:          0  MISS:       1348  HIT %:          0  MISS %:        100   MPKI: 0.02696
LLC PREFETCH  ACCESS:    3481360  HIT:       1130  MISS:    3480230  HIT %:  0.0324586  MISS %:    99.9675   MPKI: 69.6046
AGUS PREFETCH L1 MISS: 0
LLC WRITEBACK ACCESS:       5645  HIT:       5606  MISS:         39  HIT %:    99.3091  MISS %:   0.690877   MPKI: 0.00078
LLC LOAD TRANSLATION ACCESS:        568  HIT:         58  MISS:        510  HIT %:    10.2113  MISS %:    89.7887   MPKI: 0.0102
LLC TRANSLATION FROM L1D PREFETCHER ACCESS:      15091  HIT:        783  MISS:      14308  HIT %:    5.18852  MISS %:    94.8115   MPKI: 0.28616
LLC PREFETCH  REQUESTED:          0  ISSUED:          0  USEFUL:        669  USELESS:    3492397
LLC USEFUL LOAD PREFETCHES:        669 PREFETCH ISSUED TO LOWER LEVEL:    3480233  ACCURACY: 0.0192229
LLC TIMELY PREFETCHES:        669 LATE PREFETCHES: 0 DROPPED PREFETCHES: 0
LLC PREFETCHES SAME FILL-ORIGIN LEVEL: 0 DIFFERENT FILL-ORIGIN LEVEL: 0
LLC AVERAGE MISS LATENCY: 79.0886 cycles
LLC RQ	ACCESS:      40587	FORWARD:          0	MERGED:          0	TO_CACHE:      40587
LLC WQ	ACCESS:       5645	FORWARD:          0	MERGED:          0	TO_CACHE:       5645
LLC PQ	ACCESS:    3481364	FORWARD:          0	MERGED:          0	TO_CACHE:    3481364

LLC Dense regions hint to LLC: 0

RAW hits: 4242
Loads Generated: 17954602
Loads sent to L1D: 17950360
Stores Generated: 726205
Stores sent to L1D: 726205
Major fault: 0 Minor fault: 48887
Allocated PAGES: 48887
Prefetcher final stats
Training Unit Size: 69
Addr table size: 2552469 2552476


Triggers: 12305587
Structural address exists: 8853375 71.946
No Prediction: 3452212 28.054
Prefetches issued: 39406995 320.237
Useful Prefetches: 3377922
Useless Prefetches: 23131
Stream end: 2804498
No translation: 1691697831
%Stream divergence: 15160 0.123196
Stream divergence -- new stream: 0

DRAM Statistics
 CHANNEL 0
 RQ ROW_BUFFER_HIT:    3258153  ROW_BUFFER_MISS:     261007
 DBUS_CONGESTED:       3366
 WQ ROW_BUFFER_HIT:        383  ROW_BUFFER_MISS:       5268  FULL:          0

 AVG_CONGESTED_CYCLE: 4
 All warmup complete: 2
Channel 0 Bank busy for read cycles: 0
Channel 0 Bank busy for write cycles: 0
Channel 0
Rank 0
0banks busy for read cycles: 17831141
0banks busy for write cycles: 3197
1banks busy for read cycles: 25228135
1banks busy for write cycles: 499719
2banks busy for read cycles: 57232710
2banks busy for write cycles: 206279
3banks busy for read cycles: 13303363
3banks busy for write cycles: 85756
4banks busy for read cycles: 2675766
4banks busy for write cycles: 35703
5banks busy for read cycles: 967246
5banks busy for write cycles: 14710
6banks busy for read cycles: 466973
6banks busy for write cycles: 5794
7banks busy for read cycles: 206881
7banks busy for write cycles: 1457
8banks busy for read cycles: 335668
8banks busy for write cycles: 1136

CPU 0 Branch Prediction Accuracy: 99.1302% MPKI: 3.1024 Average ROB Occupancy at Mispredict: 94.5057
Branch types
NOT_BRANCH: 32166917 64.3338%
BRANCH_DIRECT_JUMP: 168848 0.337696%
BRANCH_INDIRECT: 0 0%
BRANCH_CONDITIONAL: 17497543 34.9951%
BRANCH_DIRECT_CALL: 83355 0.16671%
BRANCH_INDIRECT_CALL: 0 0%
BRANCH_RETURN: 83355 0.16671%
BRANCH_OTHER: 0 0%

DRAM PAGES: 1048576
Allocated PAGES: 48887
