
*** ChampSim Multicore Out-of-Order Simulator ***

Warmup Instructions: 50000000
Simulation Instructions: 50000000
Number of CPUs: 1
LLC sets: 2048
LLC ways: 16
Off-chip DRAM Size: 4096 MB Channels: 1 Width: 64-bit Data Rate: 6400 MT/s
CPU 0 runs traces/SPEC-CPU2017/429.mcf-184B.champsimtrace.xz
.xz
CPU 0 Bimodal branch predictor
BTB has LRU replacement policy
ITLB has LRU replacement policy
DTLB has LRU replacement policy
STLB has LRU replacement policy
L1I has LRU replacement policy
L1D has LRU replacement policy
L2C has LRU replacement policy
LLC has LRU replacement policy
Heartbeat CPU 0 instructions: 10000003 cycles: 3788857 heartbeat IPC: 2.63932 cumulative IPC: 2.63932 (Simulation time: 0 hr 6 min 2 sec) 
Heartbeat CPU 0 instructions: 20000000 cycles: 7553438 heartbeat IPC: 2.65634 cumulative IPC: 2.6478 (Simulation time: 0 hr 12 min 49 sec) 
Heartbeat CPU 0 instructions: 30000001 cycles: 11303631 heartbeat IPC: 2.66653 cumulative IPC: 2.65401 (Simulation time: 0 hr 19 min 57 sec) 
Heartbeat CPU 0 instructions: 40000000 cycles: 15051303 heartbeat IPC: 2.66832 cumulative IPC: 2.65758 (Simulation time: 0 hr 26 min 50 sec) 
Heartbeat CPU 0 instructions: 50000000 cycles: 18806930 heartbeat IPC: 2.66267 cumulative IPC: 2.65859 (Simulation time: 0 hr 33 min 52 sec) 

Warmup complete CPU 0 instructions: 50000004 cycles: 18806931 (Simulation time: 0 hr 33 min 52 sec) 

Heartbeat CPU 0 instructions: 60000000 cycles: 131530258 heartbeat IPC: 0.0887128 cumulative IPC: 0.0887127 (Simulation time: 0 hr 59 min 58 sec) 
Heartbeat CPU 0 instructions: 70000000 cycles: 247276768 heartbeat IPC: 0.0863957 cumulative IPC: 0.0875389 (Simulation time: 1 hr 7 min 41 sec) 
Heartbeat CPU 0 instructions: 80000000 cycles: 361537743 heartbeat IPC: 0.0875189 cumulative IPC: 0.0875322 (Simulation time: 1 hr 15 min 55 sec) 
Heartbeat CPU 0 instructions: 90000000 cycles: 462252222 heartbeat IPC: 0.0992906 cumulative IPC: 0.0902028 (Simulation time: 1 hr 23 min 13 sec) 
Heartbeat CPU 0 instructions: 100000000 cycles: 566512485 heartbeat IPC: 0.0959138 cumulative IPC: 0.0912899 (Simulation time: 1 hr 30 min 55 sec) 
Finished CPU 0 instructions: 50000000 cycles: 547705564 cumulative IPC: 0.0912899 (Simulation time: 1 hr 30 min 55 sec) 

ChampSim completed all CPUs

Region of Interest Statistics

CPU 0 cumulative IPC: 0.0912899 instructions: 50000000 cycles: 547705564
ITLB TOTAL     ACCESS:    9252324  HIT:    9252324  MISS:          0  HIT %:        100  MISS %:          0   MPKI: 0
ITLB LOAD TRANSLATION ACCESS:    9252324  HIT:    9252324  MISS:          0  HIT %:        100  MISS %:          0   MPKI: 0
ITLB PREFETCH  REQUESTED:          0  ISSUED:          0  USEFUL:          0  USELESS:          0
ITLB USEFUL LOAD PREFETCHES:          0 PREFETCH ISSUED TO LOWER LEVEL:          0  ACCURACY: -nan
ITLB TIMELY PREFETCHES:          0 LATE PREFETCHES: 0 DROPPED PREFETCHES: 0
ITLB PREFETCHES SAME FILL-ORIGIN LEVEL: 0 DIFFERENT FILL-ORIGIN LEVEL: 0
ITLB AVERAGE MISS LATENCY: -nan cycles
ITLB RQ	ACCESS:   10144072	FORWARD:          0	MERGED:     891749	TO_CACHE:    9252323

DTLB TOTAL     ACCESS:   11084460  HIT:    5401212  MISS:    5683248  HIT %:    48.7278  MISS %:    51.2722   MPKI: 113.665
DTLB LOAD TRANSLATION ACCESS:   11084460  HIT:    5401212  MISS:    5683248  HIT %:    48.7278  MISS %:    51.2722   MPKI: 113.665
DTLB PREFETCH  REQUESTED:          0  ISSUED:          0  USEFUL:          0  USELESS:          0
DTLB USEFUL LOAD PREFETCHES:          0 PREFETCH ISSUED TO LOWER LEVEL:          0  ACCURACY: -nan
DTLB TIMELY PREFETCHES:          0 LATE PREFETCHES: 0 DROPPED PREFETCHES: 0
DTLB PREFETCHES SAME FILL-ORIGIN LEVEL: 0 DIFFERENT FILL-ORIGIN LEVEL: 0
DTLB AVERAGE MISS LATENCY: 14.6976 cycles
DTLB RQ	ACCESS:   11970885	FORWARD:          0	MERGED:     875206	TO_CACHE:   11095679

STLB TOTAL     ACCESS:   15369239  HIT:   14747520  MISS:     621719  HIT %:    95.9548  MISS %:    4.04522   MPKI: 12.4344
STLB LOAD TRANSLATION ACCESS:    5683247  HIT:    5475811  MISS:     207436  HIT %:      96.35  MISS %:    3.64996   MPKI: 4.14872
STLB TRANSLATION FROM L1D PREFETCHER ACCESS:    9685992  HIT:    9271709  MISS:     414283  HIT %:    95.7229  MISS %:    4.27714   MPKI: 8.28566
STLB PREFETCH  REQUESTED:          0  ISSUED:          0  USEFUL:     312583  USELESS:     101682
STLB USEFUL LOAD PREFETCHES:     312583 PREFETCH ISSUED TO LOWER LEVEL:          0  ACCURACY: inf
STLB TIMELY PREFETCHES:     312583 LATE PREFETCHES: 1591 DROPPED PREFETCHES: 0
STLB PREFETCHES SAME FILL-ORIGIN LEVEL: 0 DIFFERENT FILL-ORIGIN LEVEL: 0
STLB AVERAGE MISS LATENCY: 207.599 cycles
STLB RQ	ACCESS:   17184534	FORWARD:          0	MERGED:    1812435	TO_CACHE:   15372099

STLB Hit, L1D data hit: 0
STLB Hit, L2C data hit: 0
STLB Hit, LLC data hit: 0
STLB Hit, LLC data miss: 0
STLB STLB hints to L2: 0
L1D TOTAL     ACCESS:   23318287  HIT:    6409704  MISS:   16908583  HIT %:    27.4879  MISS %:    72.5121   MPKI: 338.172
L1D LOAD      ACCESS:   10746022  HIT:    4926349  MISS:    5819673  HIT %:    45.8435  MISS %:    54.1565   MPKI: 116.393
L1D RFO       ACCESS:    1199294  HIT:    1149536  MISS:      49758  HIT %:    95.8511  MISS %:    4.14894   MPKI: 0.99516
L1D PREFETCH  ACCESS:   11372971  HIT:     333819  MISS:   11039152  HIT %:     2.9352  MISS %:    97.0648   MPKI: 220.783
AGUS PREFETCH L1 MISS: 0
L1D PREFETCH  REQUESTED:   23255977  ISSUED:   23002607  USEFUL:     821533  USELESS:   10217552
L1D USEFUL LOAD PREFETCHES:     821533 PREFETCH ISSUED TO LOWER LEVEL:   11076420  ACCURACY: 7.41695
L1D TIMELY PREFETCHES:     821533 LATE PREFETCHES: 35687 DROPPED PREFETCHES: 0
L1D PREFETCHES SAME FILL-ORIGIN LEVEL: 11076420 DIFFERENT FILL-ORIGIN LEVEL: 0
L1D AVERAGE MISS LATENCY: 103.091 cycles
L1D RQ	ACCESS:   15995388	FORWARD:          0	MERGED:    5223581	TO_CACHE:   10765904
L1D WQ	ACCESS:    1282255	FORWARD:       5933	MERGED:      77274	TO_CACHE:    1204981
L1D PQ	ACCESS:   11501319	FORWARD:          0	MERGED:          1	TO_CACHE:   11501288

L1D UNIQUE REGIONS ACCESSED: 0
L1D REGIONS CONFLICTS: 0
L1D Cross Page Prefetch Requests: 7201718
L1D Same Page Prefetch Requests: 14506294
L1D ROI Sum of L1D PQ occupancy: 333897314
L1D PREFETCHES PUSHED FROM L2C: 0
L1I TOTAL     ACCESS:   10144073  HIT:   10144073  MISS:          0  HIT %:        100  MISS %:          0   MPKI: 0
L1I LOAD      ACCESS:   10144073  HIT:   10144073  MISS:          0  HIT %:        100  MISS %:          0   MPKI: 0
L1I PREFETCH  REQUESTED:          0  ISSUED:          0  USEFUL:          0  USELESS:          0
L1I USEFUL LOAD PREFETCHES:          0 PREFETCH ISSUED TO LOWER LEVEL:          0  ACCURACY: -nan
L1I TIMELY PREFETCHES:          0 LATE PREFETCHES: 0 DROPPED PREFETCHES: 0
L1I PREFETCHES SAME FILL-ORIGIN LEVEL: 0 DIFFERENT FILL-ORIGIN LEVEL: 0
L1I AVERAGE MISS LATENCY: -nan cycles
L1I RQ	ACCESS:   13991815	FORWARD:          0	MERGED:    3847743	TO_CACHE:   10144072

BTB TOTAL     ACCESS:   10746617  HIT:   10743468  MISS:       3149  HIT %:    99.9707  MISS %:  0.0293022   MPKI: 0.06298
BTB BRANCH_DIRECT_JUMP	ACCESS:     328173  HIT:     328155  MISS:         18
BTB BRANCH_INDIRECT	ACCESS:          0  HIT:          0  MISS:          0
BTB BRANCH_CONDITIONAL	ACCESS:   10354958  HIT:   10354903  MISS:         55
BTB BRANCH_DIRECT_CALL	ACCESS:      31743  HIT:      31737  MISS:          6
BTB BRANCH_INDIRECT_CALL	ACCESS:          0  HIT:          0  MISS:          0
BTB BRANCH_RETURN	ACCESS:      31743  HIT:      28673  MISS:       3070
BTB BRANCH_OTHER ACCESS:          0  HIT:          0  MISS:          0

L2C TOTAL     ACCESS:   18343981  HIT:    6778104  MISS:   11565877  HIT %:      36.95  MISS %:      63.05   MPKI: 231.318
L2C LOAD      ACCESS:    5783977  HIT:    2179476  MISS:    3604501  HIT %:    37.6813  MISS %:    62.3187   MPKI: 72.09
L2C DATA LOAD MPKI: 72.09
L2C INSTRUCTION LOAD MPKI: 0
L2C RFO       ACCESS:      48164  HIT:      16972  MISS:      31192  HIT %:    35.2379  MISS %:    64.7621   MPKI: 0.62384
L2C PREFETCH  ACCESS:   11076430  HIT:    3489431  MISS:    7586999  HIT %:    31.5032  MISS %:    68.4968   MPKI: 151.74
AGUS PREFETCH L1 MISS: 0
L2C DATA PREFETCH MPKI: 151.74
L2C INSTRUCTION PREFETCH MPKI: 0
L2C WRITEBACK ACCESS:     623496  HIT:     623494  MISS:          2  HIT %:    99.9997  MISS %: 0.000320772   MPKI: 4e-05
L2C LOAD TRANSLATION ACCESS:     275708  HIT:     128387  MISS:     147321  HIT %:    46.5663  MISS %:    53.4337   MPKI: 2.94642
L2C TRANSLATION FROM L1D PREFETCHER ACCESS:     536206  HIT:     340344  MISS:     195862  HIT %:    63.4726  MISS %:    36.5274   MPKI: 3.91724
L2C PREFETCH  REQUESTED:          0  ISSUED:          0  USEFUL:    1156748  USELESS:    6625564
L2C USEFUL LOAD PREFETCHES:    1156748 PREFETCH ISSUED TO LOWER LEVEL:    7586998  ACCURACY: 15.2465
L2C TIMELY PREFETCHES:    1156748 LATE PREFETCHES: 0 DROPPED PREFETCHES: 0
L2C PREFETCHES SAME FILL-ORIGIN LEVEL: 0 DIFFERENT FILL-ORIGIN LEVEL: 0
L2C AVERAGE MISS LATENCY: 132.462 cycles
L2C RQ	ACCESS:    6644062	FORWARD:          0	MERGED:          0	TO_CACHE:    6644055
L2C WQ	ACCESS:     623496	FORWARD:         10	MERGED:          0	TO_CACHE:     623496
L2C PQ	ACCESS:   11076420	FORWARD:          0	MERGED:          0	TO_CACHE:   11076417

L2C Instructions Evicting Data 0
L2C Translations Evicting Data 323069
L2C Data Evicting Data 10899643
L2C Instructions Evicting Instructions 0
L2C Translations Evicting Instructions 0
L2C Data Evicting Instructions 0
L2C Instructions Evicting Translations 0
L2C Translations Evicting Translations 20114
L2C Data Evicting Translations 323049
L2C Dense regions hint from L2: 0
PSCL5 TOTAL     ACCESS:     621719  HIT:     621719  MISS:          0  HIT %:        100  MISS %:          0   MPKI: 0
PSCL5 LOAD TRANSLATION ACCESS:     205845  HIT:     205845  MISS:          0  HIT %:        100  MISS %:          0   MPKI: 0
PSCL5 TRANSLATION FROM L1D PREFETCHER ACCESS:     415874  HIT:     415874  MISS:          0  HIT %:        100  MISS %:          0   MPKI: 0
PSCL5 PREFETCH  REQUESTED:          0  ISSUED:          0  USEFUL:          0  USELESS:          0
PSCL5 USEFUL LOAD PREFETCHES:          0 PREFETCH ISSUED TO LOWER LEVEL:          0  ACCURACY: -nan
PSCL5 TIMELY PREFETCHES:          0 LATE PREFETCHES: 0 DROPPED PREFETCHES: 0
PSCL5 PREFETCHES SAME FILL-ORIGIN LEVEL: 0 DIFFERENT FILL-ORIGIN LEVEL: 0

PSCL4 TOTAL     ACCESS:     621719  HIT:     621719  MISS:          0  HIT %:        100  MISS %:          0   MPKI: 0
PSCL4 LOAD TRANSLATION ACCESS:     205845  HIT:     205845  MISS:          0  HIT %:        100  MISS %:          0   MPKI: 0
PSCL4 TRANSLATION FROM L1D PREFETCHER ACCESS:     415874  HIT:     415874  MISS:          0  HIT %:        100  MISS %:          0   MPKI: 0
PSCL4 PREFETCH  REQUESTED:          0  ISSUED:          0  USEFUL:          0  USELESS:          0
PSCL4 USEFUL LOAD PREFETCHES:          0 PREFETCH ISSUED TO LOWER LEVEL:          0  ACCURACY: -nan
PSCL4 TIMELY PREFETCHES:          0 LATE PREFETCHES: 0 DROPPED PREFETCHES: 0
PSCL4 PREFETCHES SAME FILL-ORIGIN LEVEL: 0 DIFFERENT FILL-ORIGIN LEVEL: 0

PSCL3 TOTAL     ACCESS:     621719  HIT:     621719  MISS:          0  HIT %:        100  MISS %:          0   MPKI: 0
PSCL3 LOAD TRANSLATION ACCESS:     205845  HIT:     205845  MISS:          0  HIT %:        100  MISS %:          0   MPKI: 0
PSCL3 TRANSLATION FROM L1D PREFETCHER ACCESS:     415874  HIT:     415874  MISS:          0  HIT %:        100  MISS %:          0   MPKI: 0
PSCL3 PREFETCH  REQUESTED:          0  ISSUED:          0  USEFUL:          0  USELESS:          0
PSCL3 USEFUL LOAD PREFETCHES:          0 PREFETCH ISSUED TO LOWER LEVEL:          0  ACCURACY: -nan
PSCL3 TIMELY PREFETCHES:          0 LATE PREFETCHES: 0 DROPPED PREFETCHES: 0
PSCL3 PREFETCHES SAME FILL-ORIGIN LEVEL: 0 DIFFERENT FILL-ORIGIN LEVEL: 0

PSCL2 TOTAL     ACCESS:     621719  HIT:     431524  MISS:     190195  HIT %:    69.4082  MISS %:    30.5918   MPKI: 3.8039
PSCL2 LOAD TRANSLATION ACCESS:     326177  HIT:     135982  MISS:     190195  HIT %:    41.6896  MISS %:    58.3104   MPKI: 3.8039
PSCL2 TRANSLATION FROM L1D PREFETCHER ACCESS:     295542  HIT:     295542  MISS:          0  HIT %:        100  MISS %:          0   MPKI: 0
PSCL2 PREFETCH  REQUESTED:          0  ISSUED:          0  USEFUL:          0  USELESS:          0
PSCL2 USEFUL LOAD PREFETCHES:          0 PREFETCH ISSUED TO LOWER LEVEL:          0  ACCURACY: -nan
PSCL2 TIMELY PREFETCHES:          0 LATE PREFETCHES: 0 DROPPED PREFETCHES: 0
PSCL2 PREFETCHES SAME FILL-ORIGIN LEVEL: 0 DIFFERENT FILL-ORIGIN LEVEL: 0

LLC TOTAL     ACCESS:   12057910  HIT:    6445718  MISS:    5612192  HIT %:    53.4563  MISS %:    46.5437   MPKI: 112.244
LLC LOAD      ACCESS:    3604500  HIT:    1476998  MISS:    2127502  HIT %:    40.9765  MISS %:    59.0235   MPKI: 42.55
LLC RFO       ACCESS:      31192  HIT:      11066  MISS:      20126  HIT %:     35.477  MISS %:     64.523   MPKI: 0.40252
LLC PREFETCH  ACCESS:    7586995  HIT:    4304991  MISS:    3282004  HIT %:    56.7417  MISS %:    43.2583   MPKI: 65.6401
AGUS PREFETCH L1 MISS: 0
LLC WRITEBACK ACCESS:     492040  HIT:     491008  MISS:       1032  HIT %:    99.7903  MISS %:   0.209739   MPKI: 0.02064
LLC LOAD TRANSLATION ACCESS:     147321  HIT:      80454  MISS:      66867  HIT %:    54.6114  MISS %:    45.3886   MPKI: 1.33734
LLC TRANSLATION FROM L1D PREFETCHER ACCESS:     195862  HIT:      81201  MISS:     114661  HIT %:    41.4583  MISS %:    58.5417   MPKI: 2.29322
LLC PREFETCH  REQUESTED:          0  ISSUED:          0  USEFUL:     282684  USELESS:    3112946
LLC USEFUL LOAD PREFETCHES:     282684 PREFETCH ISSUED TO LOWER LEVEL:    3282003  ACCURACY: 8.61315
LLC TIMELY PREFETCHES:     282684 LATE PREFETCHES: 0 DROPPED PREFETCHES: 0
LLC PREFETCHES SAME FILL-ORIGIN LEVEL: 0 DIFFERENT FILL-ORIGIN LEVEL: 0
LLC AVERAGE MISS LATENCY: 210.897 cycles
LLC RQ	ACCESS:    3978876	FORWARD:          0	MERGED:          0	TO_CACHE:    3978875
LLC WQ	ACCESS:     492040	FORWARD:          5	MERGED:          0	TO_CACHE:     492040
LLC PQ	ACCESS:    7586998	FORWARD:          0	MERGED:          0	TO_CACHE:    7586994

LLC Dense regions hint to LLC: 0

RAW hits: 151306
Loads Generated: 16146697
Loads sent to L1D: 15995388
Stores Generated: 1282255
Stores sent to L1D: 1282255
Major fault: 0 Minor fault: 83728
Allocated PAGES: 83728

stream: 
stream:times selected: 12558106
stream:pref_reqs: 12175829
stream:pref_reqs_filtered_out: 197553
stream:pref_filled: 10770039
stream:pref_useful: 93370
stream:pref_late: 10915
stream:misses: 673990
stream:misses_by_poll: 0

CS: 
CS:times selected: 3618577
CS:pref_reqs: 3619681
CS:pref_reqs_filtered_out: 17397
CS:pref_filled: 2805106
CS:pref_useful: 30
CS:pref_late: 0
CS:misses: 47196
CS:misses_by_poll: 3396

CPLX: 
CPLX:times selected: 12452366
CPLX:pref_reqs: 3398590
CPLX:pref_reqs_filtered_out: 2940401
CPLX:pref_filled: 376126
CPLX:pref_useful: 2319
CPLX:pref_late: 39
CPLX:misses: 4017836
CPLX:misses_by_poll: 491

ISB: 
ISB:times selected:7807804
ISB:pref_reqs: 10591353
ISB:pref_reqs_filtered_out: 702351
ISB:pref_filled: 6863895
ISB:pref_useful: 1044746
ISB:pref_late: 76550
ISB:misses: 7971670
ISB:misses_by_poll: 32349
ISB:Stream end: 7457711
ISB:No Prediction: 4750306 37.8266
ISB:No translation: 3277189670 26096.2
ISB:Predictions: 7342697 58.4698

NL_L1: 
NL:times selected: 43176
NL:pref_reqs: 43176
NL:pref_reqs_filtered_out: 565
NL:pref_filled: 33804
NL:pref_useful: 147
NL:pref_late: 29
NL:misses: 44077
NL:misses_by_poll: 0

total selections: 36480029
total_filled: 11039152
total_useful: 821533
total_late: 92080
total_polluted: 36236
total_misses_after_warmup: 5839557
conflicts: 9514

test: 9734333

DRAM Statistics
 CHANNEL 0
 RQ ROW_BUFFER_HIT:     113952  ROW_BUFFER_MISS:    5497008
 DBUS_CONGESTED:        175
 WQ ROW_BUFFER_HIT:     220402  ROW_BUFFER_MISS:     184418  FULL:          0

 AVG_CONGESTED_CYCLE: 5
 All warmup complete: 2
Channel 0 Bank busy for read cycles: 0
Channel 0 Bank busy for write cycles: 0
Channel 0
Rank 0
0banks busy for read cycles: 112726482
0banks busy for write cycles: 53854
1banks busy for read cycles: 147787495
1banks busy for write cycles: 13957356
2banks busy for read cycles: 134124539
2banks busy for write cycles: 4287405
3banks busy for read cycles: 65166145
3banks busy for write cycles: 3074491
4banks busy for read cycles: 30958625
4banks busy for write cycles: 3066794
5banks busy for read cycles: 12413691
5banks busy for write cycles: 3297974
6banks busy for read cycles: 4190776
6banks busy for write cycles: 3561287
7banks busy for read cycles: 977923
7banks busy for write cycles: 4029838
8banks busy for read cycles: 114006
8banks busy for write cycles: 3916884

CPU 0 Branch Prediction Accuracy: 88.5978% MPKI: 27.4129 Average ROB Occupancy at Mispredict: 19.8487
Branch types
NOT_BRANCH: 37978919 75.9578%
BRANCH_DIRECT_JUMP: 328173 0.656346%
BRANCH_INDIRECT: 0 0%
BRANCH_CONDITIONAL: 11629170 23.2583%
BRANCH_DIRECT_CALL: 31743 0.063486%
BRANCH_INDIRECT_CALL: 0 0%
BRANCH_RETURN: 31743 0.063486%
BRANCH_OTHER: 0 0%

DRAM PAGES: 1048576
Allocated PAGES: 83728
