
*** ChampSim Multicore Out-of-Order Simulator ***

Warmup Instructions: 50000000
Simulation Instructions: 50000000
Number of CPUs: 1
LLC sets: 2048
LLC ways: 16
Off-chip DRAM Size: 4096 MB Channels: 1 Width: 64-bit Data Rate: 6400 MT/s
CPU 0 runs ./traces/SPEC-CPU2017/462.libquantum-714B.champsimtrace.xz
.xz
CPU 0 Bimodal branch predictor
BTB has LRU replacement policy
ITLB has LRU replacement policy
DTLB has LRU replacement policy
STLB has LRU replacement policy
L1I has LRU replacement policy
Ideal ISB Prefetching
L1D has LRU replacement policy
L2C has LRU replacement policy
LLC has LRU replacement policy
Heartbeat CPU 0 instructions: 10000001 cycles: 3582958 heartbeat IPC: 2.79099 cumulative IPC: 2.79099 (Simulation time: 0 hr 0 min 27 sec) 
Heartbeat CPU 0 instructions: 20000000 cycles: 6916288 heartbeat IPC: 3 cumulative IPC: 2.89172 (Simulation time: 0 hr 0 min 59 sec) 
Heartbeat CPU 0 instructions: 30000000 cycles: 10460603 heartbeat IPC: 2.82142 cumulative IPC: 2.8679 (Simulation time: 0 hr 1 min 24 sec) 
Heartbeat CPU 0 instructions: 40000000 cycles: 14091809 heartbeat IPC: 2.75391 cumulative IPC: 2.83853 (Simulation time: 0 hr 1 min 48 sec) 
Heartbeat CPU 0 instructions: 50000000 cycles: 17725050 heartbeat IPC: 2.75236 cumulative IPC: 2.82087 (Simulation time: 0 hr 2 min 12 sec) 

Warmup complete CPU 0 instructions: 50000004 cycles: 17725051 (Simulation time: 0 hr 2 min 12 sec) 

Heartbeat CPU 0 instructions: 60000000 cycles: 27780467 heartbeat IPC: 0.994489 cumulative IPC: 0.994489 (Simulation time: 0 hr 3 min 5 sec) 
Heartbeat CPU 0 instructions: 70000000 cycles: 37968552 heartbeat IPC: 0.981539 cumulative IPC: 0.987971 (Simulation time: 0 hr 3 min 59 sec) 
Heartbeat CPU 0 instructions: 80000000 cycles: 53707143 heartbeat IPC: 0.635381 cumulative IPC: 0.833748 (Simulation time: 0 hr 5 min 15 sec) 
Heartbeat CPU 0 instructions: 90000003 cycles: 66343574 heartbeat IPC: 0.791363 cumulative IPC: 0.822732 (Simulation time: 0 hr 6 min 22 sec) 
Heartbeat CPU 0 instructions: 100000000 cycles: 77055358 heartbeat IPC: 0.933551 cumulative IPC: 0.84274 (Simulation time: 0 hr 7 min 22 sec) 
Finished CPU 0 instructions: 50000002 cycles: 59330326 cumulative IPC: 0.842739 (Simulation time: 0 hr 7 min 22 sec) 

ChampSim completed all CPUs

Region of Interest Statistics

CPU 0 cumulative IPC: 0.842739 instructions: 50000002 cycles: 59330326
ITLB TOTAL     ACCESS:   10009758  HIT:   10009758  MISS:          0  HIT %:        100  MISS %:          0   MPKI: 0
ITLB LOAD TRANSLATION ACCESS:   10009758  HIT:   10009758  MISS:          0  HIT %:        100  MISS %:          0   MPKI: 0
ITLB PREFETCH  REQUESTED:          0  ISSUED:          0  USEFUL:          0  USELESS:          0
ITLB USEFUL LOAD PREFETCHES:          0 PREFETCH ISSUED TO LOWER LEVEL:          0  ACCURACY: -nan
ITLB TIMELY PREFETCHES:          0 LATE PREFETCHES: 0 DROPPED PREFETCHES: 0
ITLB PREFETCHES SAME FILL-ORIGIN LEVEL: 0 DIFFERENT FILL-ORIGIN LEVEL: 0
ITLB AVERAGE MISS LATENCY: -nan cycles
ITLB RQ	ACCESS:   11070808	FORWARD:          0	MERGED:    1061051	TO_CACHE:   10009757

DTLB TOTAL     ACCESS:    6428061  HIT:    6407330  MISS:      20731  HIT %:    99.6775  MISS %:   0.322508   MPKI: 0.41462
DTLB LOAD TRANSLATION ACCESS:    6428061  HIT:    6407330  MISS:      20731  HIT %:    99.6775  MISS %:   0.322508   MPKI: 0.41462
DTLB PREFETCH  REQUESTED:          0  ISSUED:          0  USEFUL:          0  USELESS:          0
DTLB USEFUL LOAD PREFETCHES:          0 PREFETCH ISSUED TO LOWER LEVEL:          0  ACCURACY: -nan
DTLB TIMELY PREFETCHES:          0 LATE PREFETCHES: 0 DROPPED PREFETCHES: 0
DTLB PREFETCHES SAME FILL-ORIGIN LEVEL: 0 DIFFERENT FILL-ORIGIN LEVEL: 0
DTLB AVERAGE MISS LATENCY: 16.3865 cycles
DTLB RQ	ACCESS:    7770272	FORWARD:          0	MERGED:    1339556	TO_CACHE:    6430716

STLB TOTAL     ACCESS:     338250  HIT:     317520  MISS:      20730  HIT %:    93.8714  MISS %:     6.1286   MPKI: 0.4146
STLB LOAD TRANSLATION ACCESS:      20731  HIT:      18418  MISS:       2313  HIT %:    88.8428  MISS %:    11.1572   MPKI: 0.04626
STLB TRANSLATION FROM L1D PREFETCHER ACCESS:     317519  HIT:     299102  MISS:      18417  HIT %:    94.1997  MISS %:    5.80028   MPKI: 0.36834
STLB PREFETCH  REQUESTED:          0  ISSUED:          0  USEFUL:      18418  USELESS:          0
STLB USEFUL LOAD PREFETCHES:      18418 PREFETCH ISSUED TO LOWER LEVEL:          0  ACCURACY: inf
STLB TIMELY PREFETCHES:      18418 LATE PREFETCHES: 319 DROPPED PREFETCHES: 0
STLB PREFETCHES SAME FILL-ORIGIN LEVEL: 0 DIFFERENT FILL-ORIGIN LEVEL: 0
STLB AVERAGE MISS LATENCY: 48.4168 cycles
STLB RQ	ACCESS:    2293360	FORWARD:          0	MERGED:    1953389	TO_CACHE:     339971

STLB Hit, L1D data hit: 0
STLB Hit, L2C data hit: 0
STLB Hit, LLC data hit: 0
STLB Hit, LLC data miss: 0
STLB STLB hints to L2: 0
L1D TOTAL     ACCESS:    8325815  HIT:    6999314  MISS:    1326501  HIT %:    84.0676  MISS %:    15.9324   MPKI: 26.53
L1D LOAD      ACCESS:    5189414  HIT:    4876364  MISS:     313050  HIT %:    93.9675  MISS %:    6.03247   MPKI: 6.261
L1D RFO       ACCESS:    2108692  HIT:    2108684  MISS:          8  HIT %:    99.9996  MISS %: 0.000379382   MPKI: 0.00016
L1D PREFETCH  ACCESS:    1027709  HIT:      14266  MISS:    1013443  HIT %:    1.38814  MISS %:    98.6119   MPKI: 20.2689
AGUS PREFETCH L1 MISS: 0
L1D PREFETCH  REQUESTED:    5137074  ISSUED:    4573504  USEFUL:    1013444  USELESS:          0
L1D USEFUL LOAD PREFETCHES:    1013444 PREFETCH ISSUED TO LOWER LEVEL:    1151674  ACCURACY: 87.9975
L1D TIMELY PREFETCHES:    1013444 LATE PREFETCHES: 138230 DROPPED PREFETCHES: 0
L1D PREFETCHES SAME FILL-ORIGIN LEVEL: 1151674 DIFFERENT FILL-ORIGIN LEVEL: 0
L1D AVERAGE MISS LATENCY: 186.192 cycles
L1D RQ	ACCESS:   15917881	FORWARD:          0	MERGED:   10256313	TO_CACHE:    5661564
L1D WQ	ACCESS:    2108708	FORWARD:          4	MERGED:          0	TO_CACHE:    2108708
L1D PQ	ACCESS:    2300875	FORWARD:          0	MERGED:      28246	TO_CACHE:    2272629

L1D UNIQUE REGIONS ACCESSED: 0
L1D REGIONS CONFLICTS: 0
L1D Cross Page Prefetch Requests: 168609
L1D Same Page Prefetch Requests: 2844973
L1D ROI Sum of L1D PQ occupancy: 37080728
L1D PREFETCHES PUSHED FROM L2C: 0
L1I TOTAL     ACCESS:   11070808  HIT:   11070808  MISS:          0  HIT %:        100  MISS %:          0   MPKI: 0
L1I LOAD      ACCESS:   11070808  HIT:   11070808  MISS:          0  HIT %:        100  MISS %:          0   MPKI: 0
L1I PREFETCH  REQUESTED:          0  ISSUED:          0  USEFUL:          0  USELESS:          0
L1I USEFUL LOAD PREFETCHES:          0 PREFETCH ISSUED TO LOWER LEVEL:          0  ACCURACY: -nan
L1I TIMELY PREFETCHES:          0 LATE PREFETCHES: 0 DROPPED PREFETCHES: 0
L1I PREFETCHES SAME FILL-ORIGIN LEVEL: 0 DIFFERENT FILL-ORIGIN LEVEL: 0
L1I AVERAGE MISS LATENCY: -nan cycles
L1I RQ	ACCESS:   18134497	FORWARD:          0	MERGED:    7063689	TO_CACHE:   11070808

BTB TOTAL     ACCESS:    8514772  HIT:    8514749  MISS:         23  HIT %:    99.9997  MISS %: 0.000270119   MPKI: 0.00046
BTB BRANCH_DIRECT_JUMP	ACCESS:          0  HIT:          0  MISS:          0
BTB BRANCH_INDIRECT	ACCESS:          2  HIT:          1  MISS:          1
BTB BRANCH_CONDITIONAL	ACCESS:    8514750  HIT:    8514746  MISS:          4
BTB BRANCH_DIRECT_CALL	ACCESS:         10  HIT:          1  MISS:          9
BTB BRANCH_INDIRECT_CALL	ACCESS:          0  HIT:          0  MISS:          0
BTB BRANCH_RETURN	ACCESS:         10  HIT:          1  MISS:          9
BTB BRANCH_OTHER ACCESS:          0  HIT:          0  MISS:          0

L2C TOTAL     ACCESS:    1883020  HIT:     553924  MISS:    1329096  HIT %:    29.4168  MISS %:    70.5832   MPKI: 26.5819
L2C LOAD      ACCESS:     174820  HIT:          0  MISS:     174820  HIT %:          0  MISS %:        100   MPKI: 3.4964
L2C DATA LOAD MPKI: 3.4964
L2C INSTRUCTION LOAD MPKI: 0
L2C RFO       ACCESS:          8  HIT:          0  MISS:          8  HIT %:          0  MISS %:        100   MPKI: 0.00016
L2C PREFETCH  ACCESS:    1151673  HIT:          0  MISS:    1151673  HIT %:          0  MISS %:        100   MPKI: 23.0335
AGUS PREFETCH L1 MISS: 0
L2C DATA PREFETCH MPKI: 23.0335
L2C INSTRUCTION PREFETCH MPKI: 0
L2C WRITEBACK ACCESS:     535789  HIT:     535789  MISS:          0  HIT %:        100  MISS %:          0   MPKI: 0
L2C LOAD TRANSLATION ACCESS:       1994  HIT:       1639  MISS:        355  HIT %:    82.1966  MISS %:    17.8034   MPKI: 0.0071
L2C TRANSLATION FROM L1D PREFETCHER ACCESS:      18736  HIT:      16496  MISS:       2240  HIT %:    88.0444  MISS %:    11.9556   MPKI: 0.0448
L2C PREFETCH  REQUESTED:          0  ISSUED:          0  USEFUL:       2240  USELESS:    1151729
L2C USEFUL LOAD PREFETCHES:       2240 PREFETCH ISSUED TO LOWER LEVEL:    1151674  ACCURACY: 0.194499
L2C TIMELY PREFETCHES:       2240 LATE PREFETCHES: 0 DROPPED PREFETCHES: 0
L2C PREFETCHES SAME FILL-ORIGIN LEVEL: 0 DIFFERENT FILL-ORIGIN LEVEL: 0
L2C AVERAGE MISS LATENCY: 170.104 cycles
L2C RQ	ACCESS:     195558	FORWARD:          0	MERGED:          0	TO_CACHE:     195558
L2C WQ	ACCESS:     535789	FORWARD:          0	MERGED:          0	TO_CACHE:     535789
L2C PQ	ACCESS:    1151674	FORWARD:          0	MERGED:          0	TO_CACHE:    1151674

L2C Instructions Evicting Data 0
L2C Translations Evicting Data 2595
L2C Data Evicting Data 1323904
L2C Instructions Evicting Instructions 0
L2C Translations Evicting Instructions 0
L2C Data Evicting Instructions 0
L2C Instructions Evicting Translations 0
L2C Translations Evicting Translations 0
L2C Data Evicting Translations 2597
L2C Dense regions hint from L2: 0
PSCL5 TOTAL     ACCESS:      20730  HIT:      20730  MISS:          0  HIT %:        100  MISS %:          0   MPKI: 0
PSCL5 LOAD TRANSLATION ACCESS:       1994  HIT:       1994  MISS:          0  HIT %:        100  MISS %:          0   MPKI: 0
PSCL5 TRANSLATION FROM L1D PREFETCHER ACCESS:      18736  HIT:      18736  MISS:          0  HIT %:        100  MISS %:          0   MPKI: 0
PSCL5 PREFETCH  REQUESTED:          0  ISSUED:          0  USEFUL:          0  USELESS:          0
PSCL5 USEFUL LOAD PREFETCHES:          0 PREFETCH ISSUED TO LOWER LEVEL:          0  ACCURACY: -nan
PSCL5 TIMELY PREFETCHES:          0 LATE PREFETCHES: 0 DROPPED PREFETCHES: 0
PSCL5 PREFETCHES SAME FILL-ORIGIN LEVEL: 0 DIFFERENT FILL-ORIGIN LEVEL: 0

PSCL4 TOTAL     ACCESS:      20730  HIT:      20730  MISS:          0  HIT %:        100  MISS %:          0   MPKI: 0
PSCL4 LOAD TRANSLATION ACCESS:       1994  HIT:       1994  MISS:          0  HIT %:        100  MISS %:          0   MPKI: 0
PSCL4 TRANSLATION FROM L1D PREFETCHER ACCESS:      18736  HIT:      18736  MISS:          0  HIT %:        100  MISS %:          0   MPKI: 0
PSCL4 PREFETCH  REQUESTED:          0  ISSUED:          0  USEFUL:          0  USELESS:          0
PSCL4 USEFUL LOAD PREFETCHES:          0 PREFETCH ISSUED TO LOWER LEVEL:          0  ACCURACY: -nan
PSCL4 TIMELY PREFETCHES:          0 LATE PREFETCHES: 0 DROPPED PREFETCHES: 0
PSCL4 PREFETCHES SAME FILL-ORIGIN LEVEL: 0 DIFFERENT FILL-ORIGIN LEVEL: 0

PSCL3 TOTAL     ACCESS:      20730  HIT:      20730  MISS:          0  HIT %:        100  MISS %:          0   MPKI: 0
PSCL3 LOAD TRANSLATION ACCESS:       1994  HIT:       1994  MISS:          0  HIT %:        100  MISS %:          0   MPKI: 0
PSCL3 TRANSLATION FROM L1D PREFETCHER ACCESS:      18736  HIT:      18736  MISS:          0  HIT %:        100  MISS %:          0   MPKI: 0
PSCL3 PREFETCH  REQUESTED:          0  ISSUED:          0  USEFUL:          0  USELESS:          0
PSCL3 USEFUL LOAD PREFETCHES:          0 PREFETCH ISSUED TO LOWER LEVEL:          0  ACCURACY: -nan
PSCL3 TIMELY PREFETCHES:          0 LATE PREFETCHES: 0 DROPPED PREFETCHES: 0
PSCL3 PREFETCHES SAME FILL-ORIGIN LEVEL: 0 DIFFERENT FILL-ORIGIN LEVEL: 0

PSCL2 TOTAL     ACCESS:      20730  HIT:      20730  MISS:          0  HIT %:        100  MISS %:          0   MPKI: 0
PSCL2 LOAD TRANSLATION ACCESS:       1994  HIT:       1994  MISS:          0  HIT %:        100  MISS %:          0   MPKI: 0
PSCL2 TRANSLATION FROM L1D PREFETCHER ACCESS:      18736  HIT:      18736  MISS:          0  HIT %:        100  MISS %:          0   MPKI: 0
PSCL2 PREFETCH  REQUESTED:          0  ISSUED:          0  USEFUL:          0  USELESS:          0
PSCL2 USEFUL LOAD PREFETCHES:          0 PREFETCH ISSUED TO LOWER LEVEL:          0  ACCURACY: -nan
PSCL2 TIMELY PREFETCHES:          0 LATE PREFETCHES: 0 DROPPED PREFETCHES: 0
PSCL2 PREFETCHES SAME FILL-ORIGIN LEVEL: 0 DIFFERENT FILL-ORIGIN LEVEL: 0

LLC TOTAL     ACCESS:    1864654  HIT:     535558  MISS:    1329096  HIT %:    28.7216  MISS %:    71.2784   MPKI: 26.5819
LLC LOAD      ACCESS:     174820  HIT:          0  MISS:     174820  HIT %:          0  MISS %:        100   MPKI: 3.4964
LLC RFO       ACCESS:          8  HIT:          0  MISS:          8  HIT %:          0  MISS %:        100   MPKI: 0.00016
LLC PREFETCH  ACCESS:    1151673  HIT:          0  MISS:    1151673  HIT %:          0  MISS %:        100   MPKI: 23.0335
AGUS PREFETCH L1 MISS: 0
LLC WRITEBACK ACCESS:     535558  HIT:     535558  MISS:          0  HIT %:        100  MISS %:          0   MPKI: 0
LLC LOAD TRANSLATION ACCESS:        355  HIT:          0  MISS:        355  HIT %:          0  MISS %:        100   MPKI: 0.0071
LLC TRANSLATION FROM L1D PREFETCHER ACCESS:       2240  HIT:          0  MISS:       2240  HIT %:          0  MISS %:        100   MPKI: 0.0448
LLC PREFETCH  REQUESTED:          0  ISSUED:          0  USEFUL:          0  USELESS:    1154155
LLC USEFUL LOAD PREFETCHES:          0 PREFETCH ISSUED TO LOWER LEVEL:    1151674  ACCURACY: 0
LLC TIMELY PREFETCHES:          0 LATE PREFETCHES: 0 DROPPED PREFETCHES: 0
LLC PREFETCHES SAME FILL-ORIGIN LEVEL: 0 DIFFERENT FILL-ORIGIN LEVEL: 0
LLC AVERAGE MISS LATENCY: 140.104 cycles
LLC RQ	ACCESS:     177423	FORWARD:          0	MERGED:          0	TO_CACHE:     177423
LLC WQ	ACCESS:     535558	FORWARD:          0	MERGED:          0	TO_CACHE:     535558
LLC PQ	ACCESS:    1151674	FORWARD:          0	MERGED:          0	TO_CACHE:    1151674

LLC Dense regions hint to LLC: 0

RAW hits: 4
Loads Generated: 15917889
Loads sent to L1D: 15917881
Stores Generated: 2108708
Stores sent to L1D: 2108708
Major fault: 0 Minor fault: 8227
Allocated PAGES: 8227
Prefetcher final stats
Training Unit Size: 8
Addr table size: 519433 519433


Triggers: 980002
No Prediction: 529766 54.0576
Stream end: 4886
No translation: 1434512 146.378
Predictions: 3013582 307.508


Stream divergence: 29930 3.05408
Stream divergence -- new stream: 0

DRAM Statistics
 CHANNEL 0
 RQ ROW_BUFFER_HIT:     862381  ROW_BUFFER_MISS:     466716
 DBUS_CONGESTED:         27
 WQ ROW_BUFFER_HIT:      97705  ROW_BUFFER_MISS:     437086  FULL:          0

 AVG_CONGESTED_CYCLE: 4
 All warmup complete: 2
Channel 0 Bank busy for read cycles: 0
Channel 0 Bank busy for write cycles: 0
Channel 0
Rank 0
0banks busy for read cycles: 23071255
0banks busy for write cycles: 13131
1banks busy for read cycles: 6666638
1banks busy for write cycles: 1730522
2banks busy for read cycles: 2719152
2banks busy for write cycles: 68188
3banks busy for read cycles: 1122059
3banks busy for write cycles: 154989
4banks busy for read cycles: 510896
4banks busy for write cycles: 73681
5banks busy for read cycles: 430673
5banks busy for write cycles: 66985
6banks busy for read cycles: 411783
6banks busy for write cycles: 66171
7banks busy for read cycles: 928625
7banks busy for write cycles: 583628
8banks busy for read cycles: 10582279
8banks busy for write cycles: 10129672

CPU 0 Branch Prediction Accuracy: 99.8647% MPKI: 0.2304 Average ROB Occupancy at Mispredict: 103.711
Branch types
NOT_BRANCH: 41485275 82.9705%
BRANCH_DIRECT_JUMP: 0 0%
BRANCH_INDIRECT: 2 4e-06%
BRANCH_CONDITIONAL: 8514764 17.0295%
BRANCH_DIRECT_CALL: 10 2e-05%
BRANCH_INDIRECT_CALL: 0 0%
BRANCH_RETURN: 10 2e-05%
BRANCH_OTHER: 0 0%

DRAM PAGES: 1048576
Allocated PAGES: 8227
