
*** ChampSim Multicore Out-of-Order Simulator ***

Warmup Instructions: 50000000
Simulation Instructions: 50000000
Number of CPUs: 1
LLC sets: 2048
LLC ways: 16
Off-chip DRAM Size: 4096 MB Channels: 1 Width: 64-bit Data Rate: 6400 MT/s
CPU 0 runs ./traces/SPEC-CPU2017/462.libquantum-714B.champsimtrace.xz
.xz
CPU 0 Bimodal branch predictor
BTB has LRU replacement policy
ITLB has LRU replacement policy
DTLB has LRU replacement policy
STLB has LRU replacement policy
L1I has LRU replacement policy
L1D has LRU replacement policy
L2C has LRU replacement policy
LLC has LRU replacement policy
Heartbeat CPU 0 instructions: 10000001 cycles: 3582958 heartbeat IPC: 2.79099 cumulative IPC: 2.79099 (Simulation time: 0 hr 0 min 39 sec) 
Heartbeat CPU 0 instructions: 20000000 cycles: 6916288 heartbeat IPC: 3 cumulative IPC: 2.89172 (Simulation time: 0 hr 1 min 28 sec) 
Heartbeat CPU 0 instructions: 30000000 cycles: 10460606 heartbeat IPC: 2.82142 cumulative IPC: 2.8679 (Simulation time: 0 hr 2 min 7 sec) 
Heartbeat CPU 0 instructions: 40000000 cycles: 14091809 heartbeat IPC: 2.75391 cumulative IPC: 2.83853 (Simulation time: 0 hr 2 min 44 sec) 
Heartbeat CPU 0 instructions: 50000000 cycles: 17725050 heartbeat IPC: 2.75236 cumulative IPC: 2.82087 (Simulation time: 0 hr 3 min 23 sec) 

Warmup complete CPU 0 instructions: 50000004 cycles: 17725051 (Simulation time: 0 hr 3 min 23 sec) 

Heartbeat CPU 0 instructions: 60000000 cycles: 27761831 heartbeat IPC: 0.996335 cumulative IPC: 0.996335 (Simulation time: 0 hr 4 min 34 sec) 
Heartbeat CPU 0 instructions: 70000000 cycles: 37952584 heartbeat IPC: 0.981282 cumulative IPC: 0.988751 (Simulation time: 0 hr 5 min 47 sec) 
Heartbeat CPU 0 instructions: 80000000 cycles: 53129551 heartbeat IPC: 0.658893 cumulative IPC: 0.84735 (Simulation time: 0 hr 7 min 26 sec) 
Heartbeat CPU 0 instructions: 90000000 cycles: 65660004 heartbeat IPC: 0.798056 cumulative IPC: 0.834464 (Simulation time: 0 hr 8 min 51 sec) 
Heartbeat CPU 0 instructions: 100000000 cycles: 76299713 heartbeat IPC: 0.939875 cumulative IPC: 0.853611 (Simulation time: 0 hr 10 min 4 sec) 
Finished CPU 0 instructions: 50000002 cycles: 58574682 cumulative IPC: 0.853611 (Simulation time: 0 hr 10 min 4 sec) 

ChampSim completed all CPUs

Region of Interest Statistics

CPU 0 cumulative IPC: 0.853611 instructions: 50000002 cycles: 58574682
ITLB TOTAL     ACCESS:    9979682  HIT:    9979682  MISS:          0  HIT %:        100  MISS %:          0   MPKI: 0
ITLB LOAD TRANSLATION ACCESS:    9979682  HIT:    9979682  MISS:          0  HIT %:        100  MISS %:          0   MPKI: 0
ITLB PREFETCH  REQUESTED:          0  ISSUED:          0  USEFUL:          0  USELESS:          0
ITLB USEFUL LOAD PREFETCHES:          0 PREFETCH ISSUED TO LOWER LEVEL:          0  ACCURACY: -nan
ITLB TIMELY PREFETCHES:          0 LATE PREFETCHES: 0 DROPPED PREFETCHES: 0
ITLB PREFETCHES SAME FILL-ORIGIN LEVEL: 0 DIFFERENT FILL-ORIGIN LEVEL: 0
ITLB AVERAGE MISS LATENCY: -nan cycles
ITLB RQ	ACCESS:   11040438	FORWARD:          0	MERGED:    1060757	TO_CACHE:    9979681

DTLB TOTAL     ACCESS:    6322107  HIT:    6301376  MISS:      20731  HIT %:    99.6721  MISS %:   0.327913   MPKI: 0.41462
DTLB LOAD TRANSLATION ACCESS:    6322107  HIT:    6301376  MISS:      20731  HIT %:    99.6721  MISS %:   0.327913   MPKI: 0.41462
DTLB PREFETCH  REQUESTED:          0  ISSUED:          0  USEFUL:          0  USELESS:          0
DTLB USEFUL LOAD PREFETCHES:          0 PREFETCH ISSUED TO LOWER LEVEL:          0  ACCURACY: -nan
DTLB TIMELY PREFETCHES:          0 LATE PREFETCHES: 0 DROPPED PREFETCHES: 0
DTLB PREFETCHES SAME FILL-ORIGIN LEVEL: 0 DIFFERENT FILL-ORIGIN LEVEL: 0
DTLB AVERAGE MISS LATENCY: 22.8278 cycles
DTLB RQ	ACCESS:    7583590	FORWARD:          0	MERGED:    1250870	TO_CACHE:    6332720

STLB TOTAL     ACCESS:     358451  HIT:     337720  MISS:      20731  HIT %:    94.2165  MISS %:     5.7835   MPKI: 0.41462
STLB LOAD TRANSLATION ACCESS:      20731  HIT:      14286  MISS:       6445  HIT %:    68.9113  MISS %:    31.0887   MPKI: 0.1289
STLB TRANSLATION FROM L1D PREFETCHER ACCESS:     337720  HIT:     323434  MISS:      14286  HIT %:    95.7699  MISS %:    4.23013   MPKI: 0.28572
STLB PREFETCH  REQUESTED:          0  ISSUED:          0  USEFUL:      14286  USELESS:          0
STLB USEFUL LOAD PREFETCHES:      14286 PREFETCH ISSUED TO LOWER LEVEL:          0  ACCURACY: inf
STLB TIMELY PREFETCHES:      14286 LATE PREFETCHES: 202 DROPPED PREFETCHES: 0
STLB PREFETCHES SAME FILL-ORIGIN LEVEL: 0 DIFFERENT FILL-ORIGIN LEVEL: 0
STLB AVERAGE MISS LATENCY: 53.2743 cycles
STLB RQ	ACCESS:    1479487	FORWARD:          0	MERGED:    1119644	TO_CACHE:     359843

STLB Hit, L1D data hit: 0
STLB Hit, L2C data hit: 0
STLB Hit, LLC data hit: 0
STLB Hit, LLC data miss: 0
STLB STLB hints to L2: 0
L1D TOTAL     ACCESS:    8234975  HIT:    6908456  MISS:    1326519  HIT %:    83.8916  MISS %:    16.1084   MPKI: 26.5304
L1D LOAD      ACCESS:    5005931  HIT:    4627794  MISS:     378137  HIT %:    92.4462  MISS %:    7.55378   MPKI: 7.56274
L1D RFO       ACCESS:    2108692  HIT:    2108684  MISS:          8  HIT %:    99.9996  MISS %: 0.000379382   MPKI: 0.00016
L1D PREFETCH  ACCESS:    1120352  HIT:     171978  MISS:     948374  HIT %:    15.3504  MISS %:    84.6496   MPKI: 18.9675
AGUS PREFETCH L1 MISS: 0
L1D PREFETCH  REQUESTED:    3322946  ISSUED:    2963678  USEFUL:     948357  USELESS:          6
L1D USEFUL LOAD PREFETCHES:     948357 PREFETCH ISSUED TO LOWER LEVEL:    1115337  ACCURACY: 85.0287
L1D TIMELY PREFETCHES:     948357 LATE PREFETCHES: 166960 DROPPED PREFETCHES: 0
L1D PREFETCHES SAME FILL-ORIGIN LEVEL: 1115337 DIFFERENT FILL-ORIGIN LEVEL: 0
L1D AVERAGE MISS LATENCY: 189.397 cycles
L1D RQ	ACCESS:   15917873	FORWARD:          0	MERGED:   10442988	TO_CACHE:    5474882
L1D WQ	ACCESS:    2108708	FORWARD:          3	MERGED:          0	TO_CACHE:    2108708
L1D PQ	ACCESS:    1504922	FORWARD:          0	MERGED:      46166	TO_CACHE:    1458756

L1D UNIQUE REGIONS ACCESSED: 0
L1D REGIONS CONFLICTS: 0
L1D Cross Page Prefetch Requests: 82716
L1D Same Page Prefetch Requests: 2591084
L1D ROI Sum of L1D PQ occupancy: 25999299
L1D PREFETCHES PUSHED FROM L2C: 0
L1I TOTAL     ACCESS:   11040438  HIT:   11040438  MISS:          0  HIT %:        100  MISS %:          0   MPKI: 0
L1I LOAD      ACCESS:   11040438  HIT:   11040438  MISS:          0  HIT %:        100  MISS %:          0   MPKI: 0
L1I PREFETCH  REQUESTED:          0  ISSUED:          0  USEFUL:          0  USELESS:          0
L1I USEFUL LOAD PREFETCHES:          0 PREFETCH ISSUED TO LOWER LEVEL:          0  ACCURACY: -nan
L1I TIMELY PREFETCHES:          0 LATE PREFETCHES: 0 DROPPED PREFETCHES: 0
L1I PREFETCHES SAME FILL-ORIGIN LEVEL: 0 DIFFERENT FILL-ORIGIN LEVEL: 0
L1I AVERAGE MISS LATENCY: -nan cycles
L1I RQ	ACCESS:   18109717	FORWARD:          0	MERGED:    7069279	TO_CACHE:   11040438

BTB TOTAL     ACCESS:    8514771  HIT:    8514748  MISS:         23  HIT %:    99.9997  MISS %: 0.000270119   MPKI: 0.00046
BTB BRANCH_DIRECT_JUMP	ACCESS:          0  HIT:          0  MISS:          0
BTB BRANCH_INDIRECT	ACCESS:          2  HIT:          1  MISS:          1
BTB BRANCH_CONDITIONAL	ACCESS:    8514749  HIT:    8514745  MISS:          4
BTB BRANCH_DIRECT_CALL	ACCESS:         10  HIT:          1  MISS:          9
BTB BRANCH_INDIRECT_CALL	ACCESS:          0  HIT:          0  MISS:          0
BTB BRANCH_RETURN	ACCESS:         10  HIT:          1  MISS:          9
BTB BRANCH_OTHER ACCESS:          0  HIT:          0  MISS:          0

L2C TOTAL     ACCESS:    1883039  HIT:     553925  MISS:    1329114  HIT %:    29.4165  MISS %:    70.5835   MPKI: 26.5823
L2C LOAD      ACCESS:     211177  HIT:          0  MISS:     211177  HIT %:          0  MISS %:        100   MPKI: 4.22354
L2C DATA LOAD MPKI: 4.22354
L2C INSTRUCTION LOAD MPKI: 0
L2C RFO       ACCESS:          8  HIT:          0  MISS:          8  HIT %:          0  MISS %:        100   MPKI: 0.00016
L2C PREFETCH  ACCESS:    1115334  HIT:          0  MISS:    1115334  HIT %:          0  MISS %:        100   MPKI: 22.3067
AGUS PREFETCH L1 MISS: 0
L2C DATA PREFETCH MPKI: 22.3067
L2C INSTRUCTION PREFETCH MPKI: 0
L2C WRITEBACK ACCESS:     535789  HIT:     535789  MISS:          0  HIT %:        100  MISS %:          0   MPKI: 0
L2C LOAD TRANSLATION ACCESS:       6243  HIT:       5505  MISS:        738  HIT %:    88.1788  MISS %:    11.8212   MPKI: 0.01476
L2C TRANSLATION FROM L1D PREFETCHER ACCESS:      14488  HIT:      12631  MISS:       1857  HIT %:    87.1825  MISS %:    12.8175   MPKI: 0.03714
L2C PREFETCH  REQUESTED:          0  ISSUED:          0  USEFUL:       1857  USELESS:    1115167
L2C USEFUL LOAD PREFETCHES:       1857 PREFETCH ISSUED TO LOWER LEVEL:    1115337  ACCURACY: 0.166497
L2C TIMELY PREFETCHES:       1857 LATE PREFETCHES: 0 DROPPED PREFETCHES: 0
L2C PREFETCHES SAME FILL-ORIGIN LEVEL: 0 DIFFERENT FILL-ORIGIN LEVEL: 0
L2C AVERAGE MISS LATENCY: 173.83 cycles
L2C RQ	ACCESS:     231916	FORWARD:          0	MERGED:          0	TO_CACHE:     231916
L2C WQ	ACCESS:     535789	FORWARD:          0	MERGED:          0	TO_CACHE:     535789
L2C PQ	ACCESS:    1115337	FORWARD:          0	MERGED:          0	TO_CACHE:    1115337

L2C Instructions Evicting Data 0
L2C Translations Evicting Data 2595
L2C Data Evicting Data 1323922
L2C Instructions Evicting Instructions 0
L2C Translations Evicting Instructions 0
L2C Data Evicting Instructions 0
L2C Instructions Evicting Translations 0
L2C Translations Evicting Translations 0
L2C Data Evicting Translations 2597
L2C Dense regions hint from L2: 0
PSCL5 TOTAL     ACCESS:      20731  HIT:      20731  MISS:          0  HIT %:        100  MISS %:          0   MPKI: 0
PSCL5 LOAD TRANSLATION ACCESS:       6243  HIT:       6243  MISS:          0  HIT %:        100  MISS %:          0   MPKI: 0
PSCL5 TRANSLATION FROM L1D PREFETCHER ACCESS:      14488  HIT:      14488  MISS:          0  HIT %:        100  MISS %:          0   MPKI: 0
PSCL5 PREFETCH  REQUESTED:          0  ISSUED:          0  USEFUL:          0  USELESS:          0
PSCL5 USEFUL LOAD PREFETCHES:          0 PREFETCH ISSUED TO LOWER LEVEL:          0  ACCURACY: -nan
PSCL5 TIMELY PREFETCHES:          0 LATE PREFETCHES: 0 DROPPED PREFETCHES: 0
PSCL5 PREFETCHES SAME FILL-ORIGIN LEVEL: 0 DIFFERENT FILL-ORIGIN LEVEL: 0

PSCL4 TOTAL     ACCESS:      20731  HIT:      20731  MISS:          0  HIT %:        100  MISS %:          0   MPKI: 0
PSCL4 LOAD TRANSLATION ACCESS:       6243  HIT:       6243  MISS:          0  HIT %:        100  MISS %:          0   MPKI: 0
PSCL4 TRANSLATION FROM L1D PREFETCHER ACCESS:      14488  HIT:      14488  MISS:          0  HIT %:        100  MISS %:          0   MPKI: 0
PSCL4 PREFETCH  REQUESTED:          0  ISSUED:          0  USEFUL:          0  USELESS:          0
PSCL4 USEFUL LOAD PREFETCHES:          0 PREFETCH ISSUED TO LOWER LEVEL:          0  ACCURACY: -nan
PSCL4 TIMELY PREFETCHES:          0 LATE PREFETCHES: 0 DROPPED PREFETCHES: 0
PSCL4 PREFETCHES SAME FILL-ORIGIN LEVEL: 0 DIFFERENT FILL-ORIGIN LEVEL: 0

PSCL3 TOTAL     ACCESS:      20731  HIT:      20731  MISS:          0  HIT %:        100  MISS %:          0   MPKI: 0
PSCL3 LOAD TRANSLATION ACCESS:       6243  HIT:       6243  MISS:          0  HIT %:        100  MISS %:          0   MPKI: 0
PSCL3 TRANSLATION FROM L1D PREFETCHER ACCESS:      14488  HIT:      14488  MISS:          0  HIT %:        100  MISS %:          0   MPKI: 0
PSCL3 PREFETCH  REQUESTED:          0  ISSUED:          0  USEFUL:          0  USELESS:          0
PSCL3 USEFUL LOAD PREFETCHES:          0 PREFETCH ISSUED TO LOWER LEVEL:          0  ACCURACY: -nan
PSCL3 TIMELY PREFETCHES:          0 LATE PREFETCHES: 0 DROPPED PREFETCHES: 0
PSCL3 PREFETCHES SAME FILL-ORIGIN LEVEL: 0 DIFFERENT FILL-ORIGIN LEVEL: 0

PSCL2 TOTAL     ACCESS:      20731  HIT:      20731  MISS:          0  HIT %:        100  MISS %:          0   MPKI: 0
PSCL2 LOAD TRANSLATION ACCESS:       6243  HIT:       6243  MISS:          0  HIT %:        100  MISS %:          0   MPKI: 0
PSCL2 TRANSLATION FROM L1D PREFETCHER ACCESS:      14488  HIT:      14488  MISS:          0  HIT %:        100  MISS %:          0   MPKI: 0
PSCL2 PREFETCH  REQUESTED:          0  ISSUED:          0  USEFUL:          0  USELESS:          0
PSCL2 USEFUL LOAD PREFETCHES:          0 PREFETCH ISSUED TO LOWER LEVEL:          0  ACCURACY: -nan
PSCL2 TIMELY PREFETCHES:          0 LATE PREFETCHES: 0 DROPPED PREFETCHES: 0
PSCL2 PREFETCHES SAME FILL-ORIGIN LEVEL: 0 DIFFERENT FILL-ORIGIN LEVEL: 0

LLC TOTAL     ACCESS:    1864672  HIT:     535558  MISS:    1329114  HIT %:    28.7213  MISS %:    71.2787   MPKI: 26.5823
LLC LOAD      ACCESS:     211177  HIT:          0  MISS:     211177  HIT %:          0  MISS %:        100   MPKI: 4.22354
LLC RFO       ACCESS:          8  HIT:          0  MISS:          8  HIT %:          0  MISS %:        100   MPKI: 0.00016
LLC PREFETCH  ACCESS:    1115334  HIT:          0  MISS:    1115334  HIT %:          0  MISS %:        100   MPKI: 22.3067
AGUS PREFETCH L1 MISS: 0
LLC WRITEBACK ACCESS:     535558  HIT:     535558  MISS:          0  HIT %:        100  MISS %:          0   MPKI: 0
LLC LOAD TRANSLATION ACCESS:        738  HIT:          0  MISS:        738  HIT %:          0  MISS %:        100   MPKI: 0.01476
LLC TRANSLATION FROM L1D PREFETCHER ACCESS:       1857  HIT:          0  MISS:       1857  HIT %:          0  MISS %:        100   MPKI: 0.03714
LLC PREFETCH  REQUESTED:          0  ISSUED:          0  USEFUL:          0  USELESS:    1116464
LLC USEFUL LOAD PREFETCHES:          0 PREFETCH ISSUED TO LOWER LEVEL:    1115337  ACCURACY: 0
LLC TIMELY PREFETCHES:          0 LATE PREFETCHES: 0 DROPPED PREFETCHES: 0
LLC PREFETCHES SAME FILL-ORIGIN LEVEL: 0 DIFFERENT FILL-ORIGIN LEVEL: 0
LLC AVERAGE MISS LATENCY: 143.83 cycles
LLC RQ	ACCESS:     213780	FORWARD:          0	MERGED:          0	TO_CACHE:     213780
LLC WQ	ACCESS:     535558	FORWARD:          0	MERGED:          0	TO_CACHE:     535558
LLC PQ	ACCESS:    1115337	FORWARD:          0	MERGED:          0	TO_CACHE:    1115337

LLC Dense regions hint to LLC: 0

RAW hits: 11
Loads Generated: 15917888
Loads sent to L1D: 15917873
Stores Generated: 2108708
Stores sent to L1D: 2108708
Major fault: 0 Minor fault: 8227
Allocated PAGES: 8227

stream: 
stream:times selected: 633871
stream:pref_filled: 1561263
stream:pref_useful: 1561242
stream:pref_late: 162010
stream:misses: 60562
stream:misses_by_poll: 0

CS: 
CS:times selected: 80196
CS:pref_filled: 66138
CS:pref_useful: 66138
CS:pref_late: 52
CS:misses: 110154
CS:misses_by_poll: 4

CPLX: 
CPLX:times selected: 553566
CPLX:pref_filled: 158468
CPLX:pref_useful: 158467
CPLX:pref_late: 1458
CPLX:misses: 919639
CPLX:misses_by_poll: 776

NL_L1: 
NL:times selected: 255
NL:pref_filled: 202
NL:pref_useful: 202
NL:pref_late: 9
NL:misses: 416
NL:misses_by_poll: 0

total selections: 1267888
total_filled: 948374
total_useful: 948357
total_late: 167143
total_polluted: 780
total_misses_after_warmup: 847087
conflicts: 9

test: 41137
ISB Prefetcher final stats
Training Unit Size: 2
Addr table size: 396207 396207


Triggers: 633872
No Prediction: 406492 64.1284
Stream end: 152435
No translation: 154800288 24421.4
Predictions: 443967 70.0405


Stream divergence: 171492 27.0547
Stream divergence -- new stream: 0

DRAM Statistics
 CHANNEL 0
 RQ ROW_BUFFER_HIT:     905089  ROW_BUFFER_MISS:     424025
 DBUS_CONGESTED:        119
 WQ ROW_BUFFER_HIT:     215286  ROW_BUFFER_MISS:     319505  FULL:          0

 AVG_CONGESTED_CYCLE: 5
 All warmup complete: 2
Channel 0 Bank busy for read cycles: 0
Channel 0 Bank busy for write cycles: 0
Channel 0
Rank 0
0banks busy for read cycles: 21438830
0banks busy for write cycles: 11839
1banks busy for read cycles: 5762723
1banks busy for write cycles: 1728993
2banks busy for read cycles: 2922474
2banks busy for write cycles: 93355
3banks busy for read cycles: 2017808
3banks busy for write cycles: 98162
4banks busy for read cycles: 1913171
4banks busy for write cycles: 103310
5banks busy for read cycles: 2401773
5banks busy for write cycles: 118814
6banks busy for read cycles: 3253105
6banks busy for write cycles: 164814
7banks busy for read cycles: 3873135
7banks busy for write cycles: 740118
8banks busy for read cycles: 3185710
8banks busy for write cycles: 8746549

CPU 0 Branch Prediction Accuracy: 99.8647% MPKI: 0.2304 Average ROB Occupancy at Mispredict: 82.4303
Branch types
NOT_BRANCH: 41485269 82.9705%
BRANCH_DIRECT_JUMP: 0 0%
BRANCH_INDIRECT: 2 4e-06%
BRANCH_CONDITIONAL: 8514763 17.0295%
BRANCH_DIRECT_CALL: 10 2e-05%
BRANCH_INDIRECT_CALL: 0 0%
BRANCH_RETURN: 10 2e-05%
BRANCH_OTHER: 0 0%

DRAM PAGES: 1048576
Allocated PAGES: 8227
