
*** ChampSim Multicore Out-of-Order Simulator ***

Warmup Instructions: 50000000
Simulation Instructions: 50000000
Number of CPUs: 1
LLC sets: 2048
LLC ways: 16
Off-chip DRAM Size: 4096 MB Channels: 1 Width: 64-bit Data Rate: 6400 MT/s
CPU 0 runs traces/SPEC-CPU2017/471.omnetpp-188B.champsimtrace.xz
.xz
CPU 0 Bimodal branch predictor
BTB has LRU replacement policy
ITLB has LRU replacement policy
DTLB has LRU replacement policy
STLB has LRU replacement policy
L1I has LRU replacement policy
L1D has LRU replacement policy
L2C has LRU replacement policy
LLC has LRU replacement policy
Heartbeat CPU 0 instructions: 10000001 cycles: 3269266 heartbeat IPC: 3.05879 cumulative IPC: 3.05879 (Simulation time: 0 hr 4 min 17 sec) 
Heartbeat CPU 0 instructions: 20000000 cycles: 6495855 heartbeat IPC: 3.09925 cumulative IPC: 3.07889 (Simulation time: 0 hr 8 min 25 sec) 
Heartbeat CPU 0 instructions: 30000000 cycles: 9741385 heartbeat IPC: 3.08116 cumulative IPC: 3.07964 (Simulation time: 0 hr 12 min 44 sec) 
Heartbeat CPU 0 instructions: 40000000 cycles: 12976833 heartbeat IPC: 3.09076 cumulative IPC: 3.08242 (Simulation time: 0 hr 16 min 58 sec) 
Heartbeat CPU 0 instructions: 50000003 cycles: 16202386 heartbeat IPC: 3.10024 cumulative IPC: 3.08597 (Simulation time: 0 hr 21 min 11 sec) 

Warmup complete CPU 0 instructions: 50000003 cycles: 16202386 (Simulation time: 0 hr 21 min 11 sec) 

Heartbeat CPU 0 instructions: 60000000 cycles: 55769147 heartbeat IPC: 0.252737 cumulative IPC: 0.252737 (Simulation time: 0 hr 22 min 41 sec) 
Heartbeat CPU 0 instructions: 70000001 cycles: 93926229 heartbeat IPC: 0.262075 cumulative IPC: 0.257321 (Simulation time: 0 hr 24 min 15 sec) 
Heartbeat CPU 0 instructions: 80000000 cycles: 133780350 heartbeat IPC: 0.250915 cumulative IPC: 0.25515 (Simulation time: 0 hr 25 min 52 sec) 
Heartbeat CPU 0 instructions: 90000003 cycles: 173846763 heartbeat IPC: 0.249586 cumulative IPC: 0.253736 (Simulation time: 0 hr 27 min 25 sec) 
Heartbeat CPU 0 instructions: 100000000 cycles: 213722384 heartbeat IPC: 0.25078 cumulative IPC: 0.253139 (Simulation time: 0 hr 29 min 0 sec) 
Finished CPU 0 instructions: 50000000 cycles: 197520007 cumulative IPC: 0.253139 (Simulation time: 0 hr 29 min 0 sec) 

ChampSim completed all CPUs

Region of Interest Statistics

CPU 0 cumulative IPC: 0.253139 instructions: 50000000 cycles: 197520007
ITLB TOTAL     ACCESS:    8720956  HIT:    8703753  MISS:      17203  HIT %:    99.8027  MISS %:    0.19726   MPKI: 0.34406
ITLB LOAD TRANSLATION ACCESS:    8720956  HIT:    8703753  MISS:      17203  HIT %:    99.8027  MISS %:    0.19726   MPKI: 0.34406
ITLB PREFETCH  REQUESTED:          0  ISSUED:          0  USEFUL:          0  USELESS:          0
ITLB USEFUL LOAD PREFETCHES:          0 PREFETCH ISSUED TO LOWER LEVEL:          0  ACCURACY: -nan
ITLB TIMELY PREFETCHES:          0 LATE PREFETCHES: 0 DROPPED PREFETCHES: 0
ITLB PREFETCHES SAME FILL-ORIGIN LEVEL: 0 DIFFERENT FILL-ORIGIN LEVEL: 0
ITLB AVERAGE MISS LATENCY: 11.5451 cycles
ITLB RQ	ACCESS:    9811420	FORWARD:          0	MERGED:    1082847	TO_CACHE:    8728573

DTLB TOTAL     ACCESS:   14655307  HIT:   13697813  MISS:     957494  HIT %:    93.4666  MISS %:    6.53343   MPKI: 19.1499
DTLB LOAD TRANSLATION ACCESS:   14655307  HIT:   13697813  MISS:     957494  HIT %:    93.4666  MISS %:    6.53343   MPKI: 19.1499
DTLB PREFETCH  REQUESTED:          0  ISSUED:          0  USEFUL:          0  USELESS:          0
DTLB USEFUL LOAD PREFETCHES:          0 PREFETCH ISSUED TO LOWER LEVEL:          0  ACCURACY: -nan
DTLB TIMELY PREFETCHES:          0 LATE PREFETCHES: 0 DROPPED PREFETCHES: 0
DTLB PREFETCHES SAME FILL-ORIGIN LEVEL: 0 DIFFERENT FILL-ORIGIN LEVEL: 0
DTLB AVERAGE MISS LATENCY: 20.3796 cycles
DTLB RQ	ACCESS:   17830210	FORWARD:          0	MERGED:    3129631	TO_CACHE:   14700579

STLB TOTAL     ACCESS:    3194066  HIT:    2924053  MISS:     270013  HIT %:    91.5464  MISS %:    8.45358   MPKI: 5.40026
STLB LOAD TRANSLATION ACCESS:     974697  HIT:     830009  MISS:     144688  HIT %:    85.1556  MISS %:    14.8444   MPKI: 2.89376
STLB TRANSLATION FROM L1D PREFETCHER ACCESS:    2219369  HIT:    2094044  MISS:     125325  HIT %:    94.3531  MISS %:    5.64688   MPKI: 2.5065
STLB PREFETCH  REQUESTED:          0  ISSUED:          0  USEFUL:      94932  USELESS:      30341
STLB USEFUL LOAD PREFETCHES:      94932 PREFETCH ISSUED TO LOWER LEVEL:          0  ACCURACY: inf
STLB TIMELY PREFETCHES:      94932 LATE PREFETCHES: 1268 DROPPED PREFETCHES: 0
STLB PREFETCHES SAME FILL-ORIGIN LEVEL: 0 DIFFERENT FILL-ORIGIN LEVEL: 0
STLB AVERAGE MISS LATENCY: 81.9832 cycles
STLB RQ	ACCESS:    3691596	FORWARD:          0	MERGED:     493799	TO_CACHE:    3197797

STLB Hit, L1D data hit: 0
STLB Hit, L2C data hit: 0
STLB Hit, LLC data hit: 0
STLB Hit, LLC data miss: 0
STLB STLB hints to L2: 0
L1D TOTAL     ACCESS:   19996875  HIT:   18220440  MISS:    1776435  HIT %:    91.1164  MISS %:    8.88356   MPKI: 35.5287
L1D LOAD      ACCESS:    9469272  HIT:    8682846  MISS:     786426  HIT %:     91.695  MISS %:    8.30503   MPKI: 15.7285
L1D RFO       ACCESS:    7875982  HIT:    7718849  MISS:     157133  HIT %:    98.0049  MISS %:    1.99509   MPKI: 3.14266
L1D PREFETCH  ACCESS:    2651621  HIT:    1818745  MISS:     832876  HIT %:    68.5899  MISS %:    31.4101   MPKI: 16.6575
AGUS PREFETCH L1 MISS: 0
L1D PREFETCH  REQUESTED:    5457833  ISSUED:    5433930  USEFUL:     261285  USELESS:     571643
L1D USEFUL LOAD PREFETCHES:     261285 PREFETCH ISSUED TO LOWER LEVEL:     860092  ACCURACY: 30.3787
L1D TIMELY PREFETCHES:     261285 LATE PREFETCHES: 25625 DROPPED PREFETCHES: 0
L1D PREFETCHES SAME FILL-ORIGIN LEVEL: 860092 DIFFERENT FILL-ORIGIN LEVEL: 0
L1D AVERAGE MISS LATENCY: 158.454 cycles
L1D RQ	ACCESS:   14040245	FORWARD:          0	MERGED:    4042012	TO_CACHE:    9560433
L1D WQ	ACCESS:    8476021	FORWARD:     437932	MERGED:     206244	TO_CACHE:    8269777
L1D PQ	ACCESS:    2717031	FORWARD:          0	MERGED:          0	TO_CACHE:    2716899

L1D UNIQUE REGIONS ACCESSED: 0
L1D REGIONS CONFLICTS: 0
L1D Cross Page Prefetch Requests: 1531431
L1D Same Page Prefetch Requests: 3717689
L1D ROI Sum of L1D PQ occupancy: 58857573
L1D PREFETCHES PUSHED FROM L2C: 0
L1I TOTAL     ACCESS:    9811123  HIT:    9809582  MISS:       1541  HIT %:    99.9843  MISS %:  0.0157067   MPKI: 0.03082
L1I LOAD      ACCESS:    9811123  HIT:    9809582  MISS:       1541  HIT %:    99.9843  MISS %:  0.0157067   MPKI: 0.03082
L1I PREFETCH  REQUESTED:          0  ISSUED:          0  USEFUL:          0  USELESS:          0
L1I USEFUL LOAD PREFETCHES:          0 PREFETCH ISSUED TO LOWER LEVEL:          0  ACCURACY: -nan
L1I TIMELY PREFETCHES:          0 LATE PREFETCHES: 0 DROPPED PREFETCHES: 0
L1I PREFETCHES SAME FILL-ORIGIN LEVEL: 0 DIFFERENT FILL-ORIGIN LEVEL: 0
L1I AVERAGE MISS LATENCY: 159.037 cycles
L1I RQ	ACCESS:   14772125	FORWARD:          0	MERGED:    4960705	TO_CACHE:    9811420

BTB TOTAL     ACCESS:   10008119  HIT:    9487971  MISS:     520148  HIT %:    94.8027  MISS %:    5.19726   MPKI: 10.403
BTB BRANCH_DIRECT_JUMP	ACCESS:     964405  HIT:     964243  MISS:        162
BTB BRANCH_INDIRECT	ACCESS:     140341  HIT:     116325  MISS:      24016
BTB BRANCH_CONDITIONAL	ACCESS:    5906166  HIT:    5905777  MISS:        389
BTB BRANCH_DIRECT_CALL	ACCESS:    1294152  HIT:    1293861  MISS:        291
BTB BRANCH_INDIRECT_CALL	ACCESS:     204449  HIT:     203146  MISS:       1303
BTB BRANCH_RETURN	ACCESS:    1498606  HIT:    1004619  MISS:     493987
BTB BRANCH_OTHER ACCESS:          0  HIT:          0  MISS:          0

L2C TOTAL     ACCESS:    2575699  HIT:     976360  MISS:    1599339  HIT %:    37.9066  MISS %:    62.0934   MPKI: 31.9868
L2C LOAD      ACCESS:     762319  HIT:     119658  MISS:     642661  HIT %:    15.6966  MISS %:    84.3034   MPKI: 12.8532
L2C DATA LOAD MPKI: 12.8263
L2C INSTRUCTION LOAD MPKI: 0.0269
L2C RFO       ACCESS:     155540  HIT:      11844  MISS:     143696  HIT %:    7.61476  MISS %:    92.3852   MPKI: 2.87392
L2C PREFETCH  ACCESS:     860067  HIT:     168200  MISS:     691867  HIT %:    19.5566  MISS %:    80.4434   MPKI: 13.8373
AGUS PREFETCH L1 MISS: 0
L2C DATA PREFETCH MPKI: 13.8373
L2C INSTRUCTION PREFETCH MPKI: 0
L2C WRITEBACK ACCESS:     501511  HIT:     499514  MISS:       1997  HIT %:    99.6018  MISS %:   0.398197   MPKI: 0.03994
L2C LOAD TRANSLATION ACCESS:     156092  HIT:      96196  MISS:      59896  HIT %:    61.6278  MISS %:    38.3722   MPKI: 1.19792
L2C TRANSLATION FROM L1D PREFETCHER ACCESS:     140170  HIT:      80948  MISS:      59222  HIT %:    57.7499  MISS %:    42.2501   MPKI: 1.18444
L2C PREFETCH  REQUESTED:          0  ISSUED:          0  USEFUL:      59499  USELESS:     691515
L2C USEFUL LOAD PREFETCHES:      59499 PREFETCH ISSUED TO LOWER LEVEL:     691867  ACCURACY: 8.59977
L2C TIMELY PREFETCHES:      59499 LATE PREFETCHES: 0 DROPPED PREFETCHES: 0
L2C PREFETCHES SAME FILL-ORIGIN LEVEL: 0 DIFFERENT FILL-ORIGIN LEVEL: 0
L2C AVERAGE MISS LATENCY: 166.472 cycles
L2C RQ	ACCESS:    1214146	FORWARD:          0	MERGED:          0	TO_CACHE:    1214121
L2C WQ	ACCESS:     501511	FORWARD:         50	MERGED:          0	TO_CACHE:     501511
L2C PQ	ACCESS:     860092	FORWARD:          0	MERGED:          0	TO_CACHE:     860067

L2C Instructions Evicting Data 1273
L2C Translations Evicting Data 109837
L2C Data Evicting Data 1365194
L2C Instructions Evicting Instructions 15
L2C Translations Evicting Instructions 89
L2C Data Evicting Instructions 1240
L2C Instructions Evicting Translations 57
L2C Translations Evicting Translations 9192
L2C Data Evicting Translations 110445
L2C Dense regions hint from L2: 0
PSCL5 TOTAL     ACCESS:     270013  HIT:     270013  MISS:          0  HIT %:        100  MISS %:          0   MPKI: 0
PSCL5 LOAD TRANSLATION ACCESS:     143420  HIT:     143420  MISS:          0  HIT %:        100  MISS %:          0   MPKI: 0
PSCL5 TRANSLATION FROM L1D PREFETCHER ACCESS:     126593  HIT:     126593  MISS:          0  HIT %:        100  MISS %:          0   MPKI: 0
PSCL5 PREFETCH  REQUESTED:          0  ISSUED:          0  USEFUL:          0  USELESS:          0
PSCL5 USEFUL LOAD PREFETCHES:          0 PREFETCH ISSUED TO LOWER LEVEL:          0  ACCURACY: -nan
PSCL5 TIMELY PREFETCHES:          0 LATE PREFETCHES: 0 DROPPED PREFETCHES: 0
PSCL5 PREFETCHES SAME FILL-ORIGIN LEVEL: 0 DIFFERENT FILL-ORIGIN LEVEL: 0

PSCL4 TOTAL     ACCESS:     270013  HIT:     270013  MISS:          0  HIT %:        100  MISS %:          0   MPKI: 0
PSCL4 LOAD TRANSLATION ACCESS:     143420  HIT:     143420  MISS:          0  HIT %:        100  MISS %:          0   MPKI: 0
PSCL4 TRANSLATION FROM L1D PREFETCHER ACCESS:     126593  HIT:     126593  MISS:          0  HIT %:        100  MISS %:          0   MPKI: 0
PSCL4 PREFETCH  REQUESTED:          0  ISSUED:          0  USEFUL:          0  USELESS:          0
PSCL4 USEFUL LOAD PREFETCHES:          0 PREFETCH ISSUED TO LOWER LEVEL:          0  ACCURACY: -nan
PSCL4 TIMELY PREFETCHES:          0 LATE PREFETCHES: 0 DROPPED PREFETCHES: 0
PSCL4 PREFETCHES SAME FILL-ORIGIN LEVEL: 0 DIFFERENT FILL-ORIGIN LEVEL: 0

PSCL3 TOTAL     ACCESS:     270013  HIT:     270013  MISS:          0  HIT %:        100  MISS %:          0   MPKI: 0
PSCL3 LOAD TRANSLATION ACCESS:     143420  HIT:     143420  MISS:          0  HIT %:        100  MISS %:          0   MPKI: 0
PSCL3 TRANSLATION FROM L1D PREFETCHER ACCESS:     126593  HIT:     126593  MISS:          0  HIT %:        100  MISS %:          0   MPKI: 0
PSCL3 PREFETCH  REQUESTED:          0  ISSUED:          0  USEFUL:          0  USELESS:          0
PSCL3 USEFUL LOAD PREFETCHES:          0 PREFETCH ISSUED TO LOWER LEVEL:          0  ACCURACY: -nan
PSCL3 TIMELY PREFETCHES:          0 LATE PREFETCHES: 0 DROPPED PREFETCHES: 0
PSCL3 PREFETCHES SAME FILL-ORIGIN LEVEL: 0 DIFFERENT FILL-ORIGIN LEVEL: 0

PSCL2 TOTAL     ACCESS:     270013  HIT:     243763  MISS:      26250  HIT %:    90.2782  MISS %:    9.72175   MPKI: 0.525
PSCL2 LOAD TRANSLATION ACCESS:     156997  HIT:     130747  MISS:      26250  HIT %:    83.2799  MISS %:    16.7201   MPKI: 0.525
PSCL2 TRANSLATION FROM L1D PREFETCHER ACCESS:     113016  HIT:     113016  MISS:          0  HIT %:        100  MISS %:          0   MPKI: 0
PSCL2 PREFETCH  REQUESTED:          0  ISSUED:          0  USEFUL:          0  USELESS:          0
PSCL2 USEFUL LOAD PREFETCHES:          0 PREFETCH ISSUED TO LOWER LEVEL:          0  ACCURACY: -nan
PSCL2 TIMELY PREFETCHES:          0 LATE PREFETCHES: 0 DROPPED PREFETCHES: 0
PSCL2 PREFETCHES SAME FILL-ORIGIN LEVEL: 0 DIFFERENT FILL-ORIGIN LEVEL: 0

LLC TOTAL     ACCESS:    2043483  HIT:     770094  MISS:    1273389  HIT %:    37.6854  MISS %:    62.3146   MPKI: 25.4678
LLC LOAD      ACCESS:     642661  HIT:     107104  MISS:     535557  HIT %:    16.6657  MISS %:    83.3343   MPKI: 10.7111
LLC RFO       ACCESS:     143696  HIT:      19212  MISS:     124484  HIT %:    13.3699  MISS %:    86.6301   MPKI: 2.48968
LLC PREFETCH  ACCESS:     691866  HIT:     122079  MISS:     569787  HIT %:    17.6449  MISS %:    82.3551   MPKI: 11.3957
AGUS PREFETCH L1 MISS: 0
LLC WRITEBACK ACCESS:     446142  HIT:     444670  MISS:       1472  HIT %:    99.6701  MISS %:    0.32994   MPKI: 0.02944
LLC LOAD TRANSLATION ACCESS:      59896  HIT:      41892  MISS:      18004  HIT %:    69.9412  MISS %:    30.0588   MPKI: 0.36008
LLC TRANSLATION FROM L1D PREFETCHER ACCESS:      59222  HIT:      35137  MISS:      24085  HIT %:     59.331  MISS %:     40.669   MPKI: 0.4817
LLC PREFETCH  REQUESTED:          0  ISSUED:          0  USEFUL:      38401  USELESS:     556728
LLC USEFUL LOAD PREFETCHES:      38401 PREFETCH ISSUED TO LOWER LEVEL:     569787  ACCURACY: 6.73954
LLC TIMELY PREFETCHES:      38401 LATE PREFETCHES: 0 DROPPED PREFETCHES: 0
LLC PREFETCHES SAME FILL-ORIGIN LEVEL: 0 DIFFERENT FILL-ORIGIN LEVEL: 0
LLC AVERAGE MISS LATENCY: 171.399 cycles
LLC RQ	ACCESS:     905475	FORWARD:          0	MERGED:          0	TO_CACHE:     905475
LLC WQ	ACCESS:     446142	FORWARD:          1	MERGED:          0	TO_CACHE:     446142
LLC PQ	ACCESS:     691867	FORWARD:          0	MERGED:          0	TO_CACHE:     691866

LLC Dense regions hint to LLC: 0

RAW hits: 835190
Loads Generated: 14875435
Loads sent to L1D: 14040245
Stores Generated: 8476009
Stores sent to L1D: 8476021
Major fault: 0 Minor fault: 33441
Allocated PAGES: 33441

stream: 
stream:times selected: 4301167
stream:pref_reqs: 4202698
stream:pref_reqs_filtered_out: 1100775
stream:pref_filled: 765398
stream:pref_useful: 135677
stream:pref_late: 16094
stream:misses: 27955
stream:misses_by_poll: 0

CS: 
CS:times selected: 56321
CS:pref_reqs: 56660
CS:pref_reqs_filtered_out: 18465
CS:pref_filled: 21068
CS:pref_useful: 4333
CS:pref_late: 242
CS:misses: 623
CS:misses_by_poll: 1

CPLX: 
CPLX:times selected: 4260635
CPLX:pref_reqs: 571140
CPLX:pref_reqs_filtered_out: 163344
CPLX:pref_filled: 235648
CPLX:pref_useful: 9389
CPLX:pref_late: 1367
CPLX:misses: 87854
CPLX:misses_by_poll: 120

ISB: 
ISB:times selected:3792860
ISB:pref_reqs: 2381684
ISB:pref_reqs_filtered_out: 626029
ISB:pref_filled: 497208
ISB:pref_useful: 304920
ISB:pref_late: 18564
ISB:misses: 405924
ISB:misses_by_poll: 609
ISB:Stream end: 1449496
ISB:No Prediction: 508310 11.8179
ISB:No translation: 1453965985 33804
ISB:Predictions: 1722297 40.0425

NL_L1: 
NL:times selected: 16042
NL:pref_reqs: 16042
NL:pref_reqs_filtered_out: 3676
NL:pref_filled: 4688
NL:pref_useful: 626
NL:pref_late: 95
NL:misses: 2662
NL:misses_by_poll: 0

total selections: 12427025
total_filled: 832876
total_useful: 261285
total_late: 38478
total_polluted: 730
total_misses_after_warmup: 877587
conflicts: 4579757

test: 2671564

DRAM Statistics
 CHANNEL 0
 RQ ROW_BUFFER_HIT:     143216  ROW_BUFFER_MISS:    1128687
 DBUS_CONGESTED:        634
 WQ ROW_BUFFER_HIT:     118701  ROW_BUFFER_MISS:     263097  FULL:          0

 AVG_CONGESTED_CYCLE: 4
 All warmup complete: 2
Channel 0 Bank busy for read cycles: 0
Channel 0 Bank busy for write cycles: 0
Channel 0
Rank 0
0banks busy for read cycles: 55094928
0banks busy for write cycles: 122918
1banks busy for read cycles: 55085458
1banks busy for write cycles: 18930490
2banks busy for read cycles: 26529583
2banks busy for write cycles: 10272488
3banks busy for read cycles: 11878139
3banks busy for write cycles: 5733145
4banks busy for read cycles: 4771997
4banks busy for write cycles: 3230177
5banks busy for read cycles: 1836203
5banks busy for write cycles: 1765288
6banks busy for read cycles: 555064
6banks busy for write cycles: 886772
7banks busy for read cycles: 128117
7banks busy for write cycles: 429788
8banks busy for read cycles: 24022
8banks busy for write cycles: 245431

CPU 0 Branch Prediction Accuracy: 94.0755% MPKI: 14.2353 Average ROB Occupancy at Mispredict: 26.2022
Branch types
NOT_BRANCH: 37985796 75.9716%
BRANCH_DIRECT_JUMP: 964405 1.92881%
BRANCH_INDIRECT: 140341 0.280682%
BRANCH_CONDITIONAL: 7911981 15.824%
BRANCH_DIRECT_CALL: 1294152 2.5883%
BRANCH_INDIRECT_CALL: 204449 0.408898%
BRANCH_RETURN: 1498606 2.99721%
BRANCH_OTHER: 0 0%

DRAM PAGES: 1048576
Allocated PAGES: 33441
