
*** ChampSim Multicore Out-of-Order Simulator ***

Warmup Instructions: 50000000
Simulation Instructions: 50000000
Number of CPUs: 1
LLC sets: 2048
LLC ways: 16
Off-chip DRAM Size: 4096 MB Channels: 1 Width: 64-bit Data Rate: 6400 MT/s
CPU 0 runs traces/SPEC-CPU2017/471.omnetpp-188B.champsimtrace.xz
.xz
CPU 0 Bimodal branch predictor
BTB has LRU replacement policy
ITLB has LRU replacement policy
DTLB has LRU replacement policy
STLB has LRU replacement policy
L1I has LRU replacement policy
L1D has LRU replacement policy
L2C has LRU replacement policy
LLC has LRU replacement policy
Heartbeat CPU 0 instructions: 10000001 cycles: 3275221 heartbeat IPC: 3.05323 cumulative IPC: 3.05323 (Simulation time: 0 hr 3 min 30 sec) 
Heartbeat CPU 0 instructions: 20000000 cycles: 6509769 heartbeat IPC: 3.09162 cumulative IPC: 3.07231 (Simulation time: 0 hr 6 min 52 sec) 
Heartbeat CPU 0 instructions: 30000000 cycles: 9764304 heartbeat IPC: 3.07264 cumulative IPC: 3.07242 (Simulation time: 0 hr 10 min 23 sec) 
Heartbeat CPU 0 instructions: 40000000 cycles: 13010594 heartbeat IPC: 3.08044 cumulative IPC: 3.07442 (Simulation time: 0 hr 13 min 48 sec) 
Heartbeat CPU 0 instructions: 50000003 cycles: 16245522 heartbeat IPC: 3.09126 cumulative IPC: 3.07777 (Simulation time: 0 hr 17 min 13 sec) 

Warmup complete CPU 0 instructions: 50000003 cycles: 16245522 (Simulation time: 0 hr 17 min 13 sec) 

Heartbeat CPU 0 instructions: 60000000 cycles: 56245504 heartbeat IPC: 0.25 cumulative IPC: 0.25 (Simulation time: 0 hr 18 min 17 sec) 
Heartbeat CPU 0 instructions: 70000001 cycles: 94813615 heartbeat IPC: 0.259282 cumulative IPC: 0.254556 (Simulation time: 0 hr 19 min 20 sec) 
Heartbeat CPU 0 instructions: 80000000 cycles: 135270730 heartbeat IPC: 0.247175 cumulative IPC: 0.252047 (Simulation time: 0 hr 20 min 28 sec) 
Heartbeat CPU 0 instructions: 90000003 cycles: 175592379 heartbeat IPC: 0.248006 cumulative IPC: 0.251025 (Simulation time: 0 hr 21 min 33 sec) 
Heartbeat CPU 0 instructions: 100000000 cycles: 215942573 heartbeat IPC: 0.24783 cumulative IPC: 0.250379 (Simulation time: 0 hr 22 min 37 sec) 
Finished CPU 0 instructions: 50000000 cycles: 199697060 cumulative IPC: 0.250379 (Simulation time: 0 hr 22 min 37 sec) 

ChampSim completed all CPUs

Region of Interest Statistics

CPU 0 cumulative IPC: 0.250379 instructions: 50000000 cycles: 199697060
ITLB TOTAL     ACCESS:    8722015  HIT:    8704812  MISS:      17203  HIT %:    99.8028  MISS %:   0.197237   MPKI: 0.34406
ITLB LOAD TRANSLATION ACCESS:    8722015  HIT:    8704812  MISS:      17203  HIT %:    99.8028  MISS %:   0.197237   MPKI: 0.34406
ITLB PREFETCH  REQUESTED:          0  ISSUED:          0  USEFUL:          0  USELESS:          0
ITLB USEFUL LOAD PREFETCHES:          0 PREFETCH ISSUED TO LOWER LEVEL:          0  ACCURACY: -nan
ITLB TIMELY PREFETCHES:          0 LATE PREFETCHES: 0 DROPPED PREFETCHES: 0
ITLB PREFETCHES SAME FILL-ORIGIN LEVEL: 0 DIFFERENT FILL-ORIGIN LEVEL: 0
ITLB AVERAGE MISS LATENCY: 12.1331 cycles
ITLB RQ	ACCESS:    9812951	FORWARD:          0	MERGED:    1083318	TO_CACHE:    8729633

DTLB TOTAL     ACCESS:   14655267  HIT:   13697780  MISS:     957487  HIT %:    93.4666  MISS %:     6.5334   MPKI: 19.1497
DTLB LOAD TRANSLATION ACCESS:   14655267  HIT:   13697780  MISS:     957487  HIT %:    93.4666  MISS %:     6.5334   MPKI: 19.1497
DTLB PREFETCH  REQUESTED:          0  ISSUED:          0  USEFUL:          0  USELESS:          0
DTLB USEFUL LOAD PREFETCHES:          0 PREFETCH ISSUED TO LOWER LEVEL:          0  ACCURACY: -nan
DTLB TIMELY PREFETCHES:          0 LATE PREFETCHES: 0 DROPPED PREFETCHES: 0
DTLB PREFETCHES SAME FILL-ORIGIN LEVEL: 0 DIFFERENT FILL-ORIGIN LEVEL: 0
DTLB AVERAGE MISS LATENCY: 20.1278 cycles
DTLB RQ	ACCESS:   17830205	FORWARD:          0	MERGED:    3129287	TO_CACHE:   14700918

STLB TOTAL     ACCESS:    3868322  HIT:    3434633  MISS:     433689  HIT %:    88.7887  MISS %:    11.2113   MPKI: 8.67378
STLB LOAD TRANSLATION ACCESS:     974690  HIT:     821451  MISS:     153239  HIT %:    84.2782  MISS %:    15.7218   MPKI: 3.06478
STLB TRANSLATION FROM L1D PREFETCHER ACCESS:    2893632  HIT:    2613182  MISS:     280450  HIT %:     90.308  MISS %:    9.69197   MPKI: 5.609
STLB PREFETCH  REQUESTED:          0  ISSUED:          0  USEFUL:     176724  USELESS:     103753
STLB USEFUL LOAD PREFETCHES:     176724 PREFETCH ISSUED TO LOWER LEVEL:          0  ACCURACY: inf
STLB TIMELY PREFETCHES:     176724 LATE PREFETCHES: 1085 DROPPED PREFETCHES: 0
STLB PREFETCHES SAME FILL-ORIGIN LEVEL: 0 DIFFERENT FILL-ORIGIN LEVEL: 0
STLB AVERAGE MISS LATENCY: 82.8564 cycles
STLB RQ	ACCESS:    4381253	FORWARD:          0	MERGED:     509819	TO_CACHE:    3871434

STLB Hit, L1D data hit: 0
STLB Hit, L2C data hit: 0
STLB Hit, LLC data hit: 0
STLB Hit, LLC data miss: 0
STLB STLB hints to L2: 0
L1D TOTAL     ACCESS:   20656797  HIT:   18616248  MISS:    2040549  HIT %:    90.1217  MISS %:    9.87834   MPKI: 40.811
L1D LOAD      ACCESS:    9466710  HIT:    8651736  MISS:     814974  HIT %:    91.3912  MISS %:    8.60884   MPKI: 16.2995
L1D RFO       ACCESS:    7870892  HIT:    7710648  MISS:     160244  HIT %:    97.9641  MISS %:    2.03591   MPKI: 3.20488
L1D PREFETCH  ACCESS:    3319195  HIT:    2253864  MISS:    1065331  HIT %:    67.9039  MISS %:    32.0961   MPKI: 21.3066
AGUS PREFETCH L1 MISS: 0
L1D PREFETCH  REQUESTED:    7133635  ISSUED:    6855784  USEFUL:     244210  USELESS:     821164
L1D USEFUL LOAD PREFETCHES:     244210 PREFETCH ISSUED TO LOWER LEVEL:    1094855  ACCURACY: 22.3052
L1D TIMELY PREFETCHES:     244210 LATE PREFETCHES: 28422 DROPPED PREFETCHES: 0
L1D PREFETCHES SAME FILL-ORIGIN LEVEL: 1094855 DIFFERENT FILL-ORIGIN LEVEL: 0
L1D AVERAGE MISS LATENCY: 156.606 cycles
L1D RQ	ACCESS:   14040415	FORWARD:          0	MERGED:    4041494	TO_CACHE:    9559878
L1D WQ	ACCESS:    8476021	FORWARD:     439314	MERGED:     205694	TO_CACHE:    8270327
L1D PQ	ACCESS:    3449221	FORWARD:          0	MERGED:      42387	TO_CACHE:    3406563

L1D UNIQUE REGIONS ACCESSED: 0
L1D REGIONS CONFLICTS: 0
L1D Cross Page Prefetch Requests: 2823893
L1D Same Page Prefetch Requests: 3756711
L1D ROI Sum of L1D PQ occupancy: 106199172
L1D PREFETCHES PUSHED FROM L2C: 0
L1I TOTAL     ACCESS:    9812652  HIT:    9811111  MISS:       1541  HIT %:    99.9843  MISS %:  0.0157042   MPKI: 0.03082
L1I LOAD      ACCESS:    9812652  HIT:    9811111  MISS:       1541  HIT %:    99.9843  MISS %:  0.0157042   MPKI: 0.03082
L1I PREFETCH  REQUESTED:          0  ISSUED:          0  USEFUL:          0  USELESS:          0
L1I USEFUL LOAD PREFETCHES:          0 PREFETCH ISSUED TO LOWER LEVEL:          0  ACCURACY: -nan
L1I TIMELY PREFETCHES:          0 LATE PREFETCHES: 0 DROPPED PREFETCHES: 0
L1I PREFETCHES SAME FILL-ORIGIN LEVEL: 0 DIFFERENT FILL-ORIGIN LEVEL: 0
L1I AVERAGE MISS LATENCY: 162.25 cycles
L1I RQ	ACCESS:   14775089	FORWARD:          0	MERGED:    4962138	TO_CACHE:    9812951

BTB TOTAL     ACCESS:   10008119  HIT:    9487971  MISS:     520148  HIT %:    94.8027  MISS %:    5.19726   MPKI: 10.403
BTB BRANCH_DIRECT_JUMP	ACCESS:     964405  HIT:     964243  MISS:        162
BTB BRANCH_INDIRECT	ACCESS:     140341  HIT:     116325  MISS:      24016
BTB BRANCH_CONDITIONAL	ACCESS:    5906166  HIT:    5905777  MISS:        389
BTB BRANCH_DIRECT_CALL	ACCESS:    1294152  HIT:    1293861  MISS:        291
BTB BRANCH_INDIRECT_CALL	ACCESS:     204449  HIT:     203146  MISS:       1303
BTB BRANCH_RETURN	ACCESS:    1498606  HIT:    1004619  MISS:     493987
BTB BRANCH_OTHER ACCESS:          0  HIT:          0  MISS:          0

L2C TOTAL     ACCESS:    3080242  HIT:    1230674  MISS:    1849568  HIT %:    39.9538  MISS %:    60.0462   MPKI: 36.9914
L2C LOAD      ACCESS:     788062  HIT:     138924  MISS:     649138  HIT %:    17.6286  MISS %:    82.3714   MPKI: 12.9828
L2C DATA LOAD MPKI: 12.9554
L2C INSTRUCTION LOAD MPKI: 0.02736
L2C RFO       ACCESS:     159142  HIT:      12944  MISS:     146198  HIT %:    8.13362  MISS %:    91.8664   MPKI: 2.92396
L2C PREFETCH  ACCESS:    1094829  HIT:     233374  MISS:     861455  HIT %:     21.316  MISS %:     78.684   MPKI: 17.2291
AGUS PREFETCH L1 MISS: 0
L2C DATA PREFETCH MPKI: 17.2291
L2C INSTRUCTION PREFETCH MPKI: 0
L2C WRITEBACK ACCESS:     506709  HIT:     504386  MISS:       2323  HIT %:    99.5416  MISS %:   0.458449   MPKI: 0.04646
L2C LOAD TRANSLATION ACCESS:     176153  HIT:     123266  MISS:      52887  HIT %:    69.9767  MISS %:    30.0233   MPKI: 1.05774
L2C TRANSLATION FROM L1D PREFETCHER ACCESS:     355347  HIT:     217780  MISS:     137567  HIT %:    61.2866  MISS %:    38.7134   MPKI: 2.75134
L2C PREFETCH  REQUESTED:          0  ISSUED:          0  USEFUL:      97277  USELESS:     901491
L2C USEFUL LOAD PREFETCHES:      97277 PREFETCH ISSUED TO LOWER LEVEL:     861455  ACCURACY: 11.2922
L2C TIMELY PREFETCHES:      97277 LATE PREFETCHES: 0 DROPPED PREFETCHES: 0
L2C PREFETCHES SAME FILL-ORIGIN LEVEL: 0 DIFFERENT FILL-ORIGIN LEVEL: 0
L2C AVERAGE MISS LATENCY: 165.133 cycles
L2C RQ	ACCESS:    1478735	FORWARD:          0	MERGED:          0	TO_CACHE:    1478704
L2C WQ	ACCESS:     506709	FORWARD:         57	MERGED:          0	TO_CACHE:     506709
L2C PQ	ACCESS:    1094855	FORWARD:          0	MERGED:          0	TO_CACHE:    1094829

L2C Instructions Evicting Data 1253
L2C Translations Evicting Data 169872
L2C Data Evicting Data 1483940
L2C Instructions Evicting Instructions 5
L2C Translations Evicting Instructions 106
L2C Data Evicting Instructions 1256
L2C Instructions Evicting Translations 110
L2C Translations Evicting Translations 20476
L2C Data Evicting Translations 170227
L2C Dense regions hint from L2: 0
PSCL5 TOTAL     ACCESS:     433689  HIT:     433689  MISS:          0  HIT %:        100  MISS %:          0   MPKI: 0
PSCL5 LOAD TRANSLATION ACCESS:     152154  HIT:     152154  MISS:          0  HIT %:        100  MISS %:          0   MPKI: 0
PSCL5 TRANSLATION FROM L1D PREFETCHER ACCESS:     281535  HIT:     281535  MISS:          0  HIT %:        100  MISS %:          0   MPKI: 0
PSCL5 PREFETCH  REQUESTED:          0  ISSUED:          0  USEFUL:          0  USELESS:          0
PSCL5 USEFUL LOAD PREFETCHES:          0 PREFETCH ISSUED TO LOWER LEVEL:          0  ACCURACY: -nan
PSCL5 TIMELY PREFETCHES:          0 LATE PREFETCHES: 0 DROPPED PREFETCHES: 0
PSCL5 PREFETCHES SAME FILL-ORIGIN LEVEL: 0 DIFFERENT FILL-ORIGIN LEVEL: 0

PSCL4 TOTAL     ACCESS:     433689  HIT:     433689  MISS:          0  HIT %:        100  MISS %:          0   MPKI: 0
PSCL4 LOAD TRANSLATION ACCESS:     152154  HIT:     152154  MISS:          0  HIT %:        100  MISS %:          0   MPKI: 0
PSCL4 TRANSLATION FROM L1D PREFETCHER ACCESS:     281535  HIT:     281535  MISS:          0  HIT %:        100  MISS %:          0   MPKI: 0
PSCL4 PREFETCH  REQUESTED:          0  ISSUED:          0  USEFUL:          0  USELESS:          0
PSCL4 USEFUL LOAD PREFETCHES:          0 PREFETCH ISSUED TO LOWER LEVEL:          0  ACCURACY: -nan
PSCL4 TIMELY PREFETCHES:          0 LATE PREFETCHES: 0 DROPPED PREFETCHES: 0
PSCL4 PREFETCHES SAME FILL-ORIGIN LEVEL: 0 DIFFERENT FILL-ORIGIN LEVEL: 0

PSCL3 TOTAL     ACCESS:     433689  HIT:     433689  MISS:          0  HIT %:        100  MISS %:          0   MPKI: 0
PSCL3 LOAD TRANSLATION ACCESS:     152154  HIT:     152154  MISS:          0  HIT %:        100  MISS %:          0   MPKI: 0
PSCL3 TRANSLATION FROM L1D PREFETCHER ACCESS:     281535  HIT:     281535  MISS:          0  HIT %:        100  MISS %:          0   MPKI: 0
PSCL3 PREFETCH  REQUESTED:          0  ISSUED:          0  USEFUL:          0  USELESS:          0
PSCL3 USEFUL LOAD PREFETCHES:          0 PREFETCH ISSUED TO LOWER LEVEL:          0  ACCURACY: -nan
PSCL3 TIMELY PREFETCHES:          0 LATE PREFETCHES: 0 DROPPED PREFETCHES: 0
PSCL3 PREFETCHES SAME FILL-ORIGIN LEVEL: 0 DIFFERENT FILL-ORIGIN LEVEL: 0

PSCL2 TOTAL     ACCESS:     433689  HIT:     335877  MISS:      97812  HIT %:    77.4465  MISS %:    22.5535   MPKI: 1.95624
PSCL2 LOAD TRANSLATION ACCESS:     225966  HIT:     128154  MISS:      97812  HIT %:    56.7138  MISS %:    43.2862   MPKI: 1.95624
PSCL2 TRANSLATION FROM L1D PREFETCHER ACCESS:     207723  HIT:     207723  MISS:          0  HIT %:        100  MISS %:          0   MPKI: 0
PSCL2 PREFETCH  REQUESTED:          0  ISSUED:          0  USEFUL:          0  USELESS:          0
PSCL2 USEFUL LOAD PREFETCHES:          0 PREFETCH ISSUED TO LOWER LEVEL:          0  ACCURACY: -nan
PSCL2 TIMELY PREFETCHES:          0 LATE PREFETCHES: 0 DROPPED PREFETCHES: 0
PSCL2 PREFETCHES SAME FILL-ORIGIN LEVEL: 0 DIFFERENT FILL-ORIGIN LEVEL: 0

LLC TOTAL     ACCESS:    2297413  HIT:     874820  MISS:    1422593  HIT %:    38.0785  MISS %:    61.9215   MPKI: 28.4519
LLC LOAD      ACCESS:     649138  HIT:     107746  MISS:     541392  HIT %:    16.5983  MISS %:    83.4017   MPKI: 10.8278
LLC RFO       ACCESS:     146197  HIT:      20529  MISS:     125668  HIT %:     14.042  MISS %:     85.958   MPKI: 2.51336
LLC PREFETCH  ACCESS:     861454  HIT:     164774  MISS:     696680  HIT %:    19.1274  MISS %:    80.8726   MPKI: 13.9336
AGUS PREFETCH L1 MISS: 0
LLC WRITEBACK ACCESS:     450170  HIT:     448561  MISS:       1609  HIT %:    99.6426  MISS %:   0.357421   MPKI: 0.03218
LLC LOAD TRANSLATION ACCESS:      52887  HIT:      41022  MISS:      11865  HIT %:    77.5654  MISS %:    22.4346   MPKI: 0.2373
LLC TRANSLATION FROM L1D PREFETCHER ACCESS:     137567  HIT:      92188  MISS:      45379  HIT %:    67.0132  MISS %:    32.9868   MPKI: 0.90758
LLC PREFETCH  REQUESTED:          0  ISSUED:          0  USEFUL:      55970  USELESS:     686715
LLC USEFUL LOAD PREFETCHES:      55970 PREFETCH ISSUED TO LOWER LEVEL:     696680  ACCURACY: 8.03382
LLC TIMELY PREFETCHES:      55970 LATE PREFETCHES: 0 DROPPED PREFETCHES: 0
LLC PREFETCHES SAME FILL-ORIGIN LEVEL: 0 DIFFERENT FILL-ORIGIN LEVEL: 0
LLC AVERAGE MISS LATENCY: 175.69 cycles
LLC RQ	ACCESS:     985790	FORWARD:          0	MERGED:          0	TO_CACHE:     985789
LLC WQ	ACCESS:     450170	FORWARD:          2	MERGED:          0	TO_CACHE:     450170
LLC PQ	ACCESS:     861455	FORWARD:          0	MERGED:          0	TO_CACHE:     861454

LLC Dense regions hint to LLC: 0

RAW hits: 835021
Loads Generated: 14875436
Loads sent to L1D: 14040415
Stores Generated: 8476009
Stores sent to L1D: 8476021
Major fault: 0 Minor fault: 33441
Allocated PAGES: 33441

stream: 
stream:times selected: 4300502
stream:pref_filled: 772499
stream:pref_useful: 133302
stream:pref_late: 15054
stream:misses: 20835
stream:misses_by_poll: 0

CS: 
CS:times selected: 56487
CS:pref_filled: 21097
CS:pref_useful: 4326
CS:pref_late: 292
CS:misses: 582
CS:misses_by_poll: 3

CPLX: 
CPLX:times selected: 4259955
CPLX:pref_filled: 223966
CPLX:pref_useful: 9053
CPLX:pref_late: 1356
CPLX:misses: 65853
CPLX:misses_by_poll: 117

ISB: 
ISB:times selected:4026336
ISB:pref_filled: 913748
ISB:pref_useful: 278151
ISB:pref_late: 22463
ISB:misses: 468885
ISB:misses_by_poll: 1677

NL_L1: 
NL:times selected: 6055
NL:pref_filled: 2234
NL:pref_useful: 340
NL:pref_late: 46
NL:misses: 1382
NL:misses_by_poll: 0

total selections: 12649335
total_filled: 1065331
total_useful: 244210
total_late: 40801
total_polluted: 1797
total_misses_after_warmup: 908143
conflicts: 4579944

test: 2671175

DRAM Statistics
 CHANNEL 0
 RQ ROW_BUFFER_HIT:     136894  ROW_BUFFER_MISS:    1284049
 DBUS_CONGESTED:        654
 WQ ROW_BUFFER_HIT:     123422  ROW_BUFFER_MISS:     265019  FULL:          0

 AVG_CONGESTED_CYCLE: 4
 All warmup complete: 2
Channel 0 Bank busy for read cycles: 0
Channel 0 Bank busy for write cycles: 0
Channel 0
Rank 0
0banks busy for read cycles: 48439075
0banks busy for write cycles: 116232
1banks busy for read cycles: 57322121
1banks busy for write cycles: 18080441
2banks busy for read cycles: 29042996
2banks busy for write cycles: 10009113
3banks busy for read cycles: 14059872
3banks busy for write cycles: 5873142
4banks busy for read cycles: 5942339
4banks busy for write cycles: 3475101
5banks busy for read cycles: 2376265
5banks busy for write cycles: 1990184
6banks busy for read cycles: 776588
6banks busy for write cycles: 1073426
7banks busy for read cycles: 190153
7banks busy for write cycles: 567321
8banks busy for read cycles: 28377
8banks busy for write cycles: 334315

CPU 0 Branch Prediction Accuracy: 94.0755% MPKI: 14.2353 Average ROB Occupancy at Mispredict: 26.2269
Branch types
NOT_BRANCH: 37985796 75.9716%
BRANCH_DIRECT_JUMP: 964405 1.92881%
BRANCH_INDIRECT: 140341 0.280682%
BRANCH_CONDITIONAL: 7911981 15.824%
BRANCH_DIRECT_CALL: 1294152 2.5883%
BRANCH_INDIRECT_CALL: 204449 0.408898%
BRANCH_RETURN: 1498606 2.99721%
BRANCH_OTHER: 0 0%

DRAM PAGES: 1048576
Allocated PAGES: 33441
