
*** ChampSim Multicore Out-of-Order Simulator ***

Warmup Instructions: 50000000
Simulation Instructions: 50000000
Number of CPUs: 1
LLC sets: 2048
LLC ways: 16
Off-chip DRAM Size: 4096 MB Channels: 1 Width: 64-bit Data Rate: 6400 MT/s
CPU 0 runs traces/SPEC-CPU2017/471.omnetpp-188B.champsimtrace.xz
.xz
CPU 0 Bimodal branch predictor
BTB has LRU replacement policy
ITLB has LRU replacement policy
DTLB has LRU replacement policy
STLB has LRU replacement policy
L1I has LRU replacement policy
L1D has LRU replacement policy
L2C has LRU replacement policy
LLC has LRU replacement policy
Heartbeat CPU 0 instructions: 10000001 cycles: 3270118 heartbeat IPC: 3.05799 cumulative IPC: 3.05799 (Simulation time: 0 hr 3 min 54 sec) 
Heartbeat CPU 0 instructions: 20000000 cycles: 6497991 heartbeat IPC: 3.09802 cumulative IPC: 3.07787 (Simulation time: 0 hr 7 min 39 sec) 
Heartbeat CPU 0 instructions: 30000000 cycles: 9744194 heartbeat IPC: 3.08052 cumulative IPC: 3.07876 (Simulation time: 0 hr 11 min 34 sec) 
Heartbeat CPU 0 instructions: 40000000 cycles: 12980753 heartbeat IPC: 3.0897 cumulative IPC: 3.08149 (Simulation time: 0 hr 15 min 24 sec) 
Heartbeat CPU 0 instructions: 50000003 cycles: 16206959 heartbeat IPC: 3.09962 cumulative IPC: 3.08509 (Simulation time: 0 hr 19 min 14 sec) 

Warmup complete CPU 0 instructions: 50000003 cycles: 16206959 (Simulation time: 0 hr 19 min 14 sec) 

Heartbeat CPU 0 instructions: 60000000 cycles: 55815221 heartbeat IPC: 0.252472 cumulative IPC: 0.252472 (Simulation time: 0 hr 20 min 45 sec) 
Heartbeat CPU 0 instructions: 70000001 cycles: 93977064 heartbeat IPC: 0.262042 cumulative IPC: 0.257168 (Simulation time: 0 hr 22 min 20 sec) 
Heartbeat CPU 0 instructions: 80000000 cycles: 133817708 heartbeat IPC: 0.251 cumulative IPC: 0.255079 (Simulation time: 0 hr 23 min 56 sec) 
Heartbeat CPU 0 instructions: 90000003 cycles: 173896960 heartbeat IPC: 0.249506 cumulative IPC: 0.253662 (Simulation time: 0 hr 25 min 29 sec) 
Heartbeat CPU 0 instructions: 100000000 cycles: 213769416 heartbeat IPC: 0.2508 cumulative IPC: 0.253085 (Simulation time: 0 hr 27 min 3 sec) 
Finished CPU 0 instructions: 50000000 cycles: 197562466 cumulative IPC: 0.253085 (Simulation time: 0 hr 27 min 3 sec) 

ChampSim completed all CPUs

Region of Interest Statistics

CPU 0 cumulative IPC: 0.253085 instructions: 50000000 cycles: 197562466
ITLB TOTAL     ACCESS:    8720873  HIT:    8703670  MISS:      17203  HIT %:    99.8027  MISS %:   0.197262   MPKI: 0.34406
ITLB LOAD TRANSLATION ACCESS:    8720873  HIT:    8703670  MISS:      17203  HIT %:    99.8027  MISS %:   0.197262   MPKI: 0.34406
ITLB PREFETCH  REQUESTED:          0  ISSUED:          0  USEFUL:          0  USELESS:          0
ITLB USEFUL LOAD PREFETCHES:          0 PREFETCH ISSUED TO LOWER LEVEL:          0  ACCURACY: -nan
ITLB TIMELY PREFETCHES:          0 LATE PREFETCHES: 0 DROPPED PREFETCHES: 0
ITLB PREFETCHES SAME FILL-ORIGIN LEVEL: 0 DIFFERENT FILL-ORIGIN LEVEL: 0
ITLB AVERAGE MISS LATENCY: 11.5898 cycles
ITLB RQ	ACCESS:    9811324	FORWARD:          0	MERGED:    1082834	TO_CACHE:    8728490

DTLB TOTAL     ACCESS:   14655239  HIT:   13697760  MISS:     957479  HIT %:    93.4666  MISS %:    6.53336   MPKI: 19.1496
DTLB LOAD TRANSLATION ACCESS:   14655239  HIT:   13697760  MISS:     957479  HIT %:    93.4666  MISS %:    6.53336   MPKI: 19.1496
DTLB PREFETCH  REQUESTED:          0  ISSUED:          0  USEFUL:          0  USELESS:          0
DTLB USEFUL LOAD PREFETCHES:          0 PREFETCH ISSUED TO LOWER LEVEL:          0  ACCURACY: -nan
DTLB TIMELY PREFETCHES:          0 LATE PREFETCHES: 0 DROPPED PREFETCHES: 0
DTLB PREFETCHES SAME FILL-ORIGIN LEVEL: 0 DIFFERENT FILL-ORIGIN LEVEL: 0
DTLB AVERAGE MISS LATENCY: 20.4098 cycles
DTLB RQ	ACCESS:   17830115	FORWARD:          0	MERGED:    3129681	TO_CACHE:   14700434

STLB TOTAL     ACCESS:    3403410  HIT:    3133390  MISS:     270020  HIT %:    92.0662  MISS %:    7.93381   MPKI: 5.4004
STLB LOAD TRANSLATION ACCESS:     974682  HIT:     829987  MISS:     144695  HIT %:    85.1546  MISS %:    14.8454   MPKI: 2.8939
STLB TRANSLATION FROM L1D PREFETCHER ACCESS:    2428728  HIT:    2303403  MISS:     125325  HIT %:    94.8399  MISS %:    5.16011   MPKI: 2.5065
STLB PREFETCH  REQUESTED:          0  ISSUED:          0  USEFUL:      97136  USELESS:      28125
STLB USEFUL LOAD PREFETCHES:      97136 PREFETCH ISSUED TO LOWER LEVEL:          0  ACCURACY: inf
STLB TIMELY PREFETCHES:      97136 LATE PREFETCHES: 1354 DROPPED PREFETCHES: 0
STLB PREFETCHES SAME FILL-ORIGIN LEVEL: 0 DIFFERENT FILL-ORIGIN LEVEL: 0
STLB AVERAGE MISS LATENCY: 82.0456 cycles
STLB RQ	ACCESS:    3941545	FORWARD:          0	MERGED:     534345	TO_CACHE:    3407200

STLB Hit, L1D data hit: 0
STLB Hit, L2C data hit: 0
STLB Hit, LLC data hit: 0
STLB Hit, LLC data miss: 0
STLB STLB hints to L2: 0
L1D TOTAL     ACCESS:   20230290  HIT:   18455408  MISS:    1774882  HIT %:    91.2266  MISS %:    8.77339   MPKI: 35.4976
L1D LOAD      ACCESS:    9469040  HIT:    8682996  MISS:     786044  HIT %:    91.6988  MISS %:     8.3012   MPKI: 15.7209
L1D RFO       ACCESS:    7875779  HIT:    7718754  MISS:     157025  HIT %:    98.0062  MISS %:    1.99377   MPKI: 3.1405
L1D PREFETCH  ACCESS:    2885471  HIT:    2053658  MISS:     831813  HIT %:    71.1724  MISS %:    28.8276   MPKI: 16.6363
AGUS PREFETCH L1 MISS: 0
L1D PREFETCH  REQUESTED:    5987135  ISSUED:    5954177  USEFUL:     261389  USELESS:     570456
L1D USEFUL LOAD PREFETCHES:     261389 PREFETCH ISSUED TO LOWER LEVEL:     858718  ACCURACY: 30.4394
L1D TIMELY PREFETCHES:     261389 LATE PREFETCHES: 25372 DROPPED PREFETCHES: 0
L1D PREFETCHES SAME FILL-ORIGIN LEVEL: 858718 DIFFERENT FILL-ORIGIN LEVEL: 0
L1D AVERAGE MISS LATENCY: 158.398 cycles
L1D RQ	ACCESS:   14039718	FORWARD:          0	MERGED:    4041726	TO_CACHE:    9560199
L1D WQ	ACCESS:    8476021	FORWARD:     437966	MERGED:     206105	TO_CACHE:    8269916
L1D PQ	ACCESS:    2987314	FORWARD:          0	MERGED:      20278	TO_CACHE:    2966863

L1D UNIQUE REGIONS ACCESSED: 0
L1D REGIONS CONFLICTS: 0
L1D Cross Page Prefetch Requests: 1837753
L1D Same Page Prefetch Requests: 3851148
L1D ROI Sum of L1D PQ occupancy: 63176074
L1D PREFETCHES PUSHED FROM L2C: 0
L1I TOTAL     ACCESS:    9811024  HIT:    9809483  MISS:       1541  HIT %:    99.9843  MISS %:  0.0157068   MPKI: 0.03082
L1I LOAD      ACCESS:    9811024  HIT:    9809483  MISS:       1541  HIT %:    99.9843  MISS %:  0.0157068   MPKI: 0.03082
L1I PREFETCH  REQUESTED:          0  ISSUED:          0  USEFUL:          0  USELESS:          0
L1I USEFUL LOAD PREFETCHES:          0 PREFETCH ISSUED TO LOWER LEVEL:          0  ACCURACY: -nan
L1I TIMELY PREFETCHES:          0 LATE PREFETCHES: 0 DROPPED PREFETCHES: 0
L1I PREFETCHES SAME FILL-ORIGIN LEVEL: 0 DIFFERENT FILL-ORIGIN LEVEL: 0
L1I AVERAGE MISS LATENCY: 158.562 cycles
L1I RQ	ACCESS:   14771886	FORWARD:          0	MERGED:    4960562	TO_CACHE:    9811324

BTB TOTAL     ACCESS:   10008119  HIT:    9487971  MISS:     520148  HIT %:    94.8027  MISS %:    5.19726   MPKI: 10.403
BTB BRANCH_DIRECT_JUMP	ACCESS:     964405  HIT:     964243  MISS:        162
BTB BRANCH_INDIRECT	ACCESS:     140341  HIT:     116325  MISS:      24016
BTB BRANCH_CONDITIONAL	ACCESS:    5906166  HIT:    5905777  MISS:        389
BTB BRANCH_DIRECT_CALL	ACCESS:    1294152  HIT:    1293861  MISS:        291
BTB BRANCH_INDIRECT_CALL	ACCESS:     204449  HIT:     203146  MISS:       1303
BTB BRANCH_RETURN	ACCESS:    1498606  HIT:    1004619  MISS:     493987
BTB BRANCH_OTHER ACCESS:          0  HIT:          0  MISS:          0

L2C TOTAL     ACCESS:    2574430  HIT:     976057  MISS:    1598373  HIT %:    37.9135  MISS %:    62.0865   MPKI: 31.9675
L2C LOAD      ACCESS:     762192  HIT:     119437  MISS:     642755  HIT %:    15.6702  MISS %:    84.3298   MPKI: 12.8551
L2C DATA LOAD MPKI: 12.8283
L2C INSTRUCTION LOAD MPKI: 0.02684
L2C RFO       ACCESS:     155491  HIT:      11834  MISS:     143657  HIT %:    7.61073  MISS %:    92.3893   MPKI: 2.87314
L2C PREFETCH  ACCESS:     858684  HIT:     167746  MISS:     690938  HIT %:    19.5352  MISS %:    80.4648   MPKI: 13.8188
AGUS PREFETCH L1 MISS: 0
L2C DATA PREFETCH MPKI: 13.8188
L2C INSTRUCTION PREFETCH MPKI: 0
L2C WRITEBACK ACCESS:     501344  HIT:     499370  MISS:       1974  HIT %:    99.6063  MISS %:   0.393742   MPKI: 0.03948
L2C LOAD TRANSLATION ACCESS:     156191  HIT:      96126  MISS:      60065  HIT %:    61.5439  MISS %:    38.4561   MPKI: 1.2013
L2C TRANSLATION FROM L1D PREFETCHER ACCESS:     140528  HIT:      81544  MISS:      58984  HIT %:    58.0269  MISS %:    41.9731   MPKI: 1.17968
L2C PREFETCH  REQUESTED:          0  ISSUED:          0  USEFUL:      59358  USELESS:     690493
L2C USEFUL LOAD PREFETCHES:      59358 PREFETCH ISSUED TO LOWER LEVEL:     690939  ACCURACY: 8.59092
L2C TIMELY PREFETCHES:      59358 LATE PREFETCHES: 0 DROPPED PREFETCHES: 0
L2C PREFETCHES SAME FILL-ORIGIN LEVEL: 0 DIFFERENT FILL-ORIGIN LEVEL: 0
L2C AVERAGE MISS LATENCY: 166.388 cycles
L2C RQ	ACCESS:    1214425	FORWARD:          0	MERGED:          0	TO_CACHE:    1214402
L2C WQ	ACCESS:     501344	FORWARD:         56	MERGED:          0	TO_CACHE:     501344
L2C PQ	ACCESS:     858718	FORWARD:          0	MERGED:          0	TO_CACHE:     858685

L2C Instructions Evicting Data 1264
L2C Translations Evicting Data 109972
L2C Data Evicting Data 1364195
L2C Instructions Evicting Instructions 13
L2C Translations Evicting Instructions 95
L2C Data Evicting Instructions 1233
L2C Instructions Evicting Translations 65
L2C Translations Evicting Translations 8982
L2C Data Evicting Translations 110580
L2C Dense regions hint from L2: 0
PSCL5 TOTAL     ACCESS:     270020  HIT:     270020  MISS:          0  HIT %:        100  MISS %:          0   MPKI: 0
PSCL5 LOAD TRANSLATION ACCESS:     143341  HIT:     143341  MISS:          0  HIT %:        100  MISS %:          0   MPKI: 0
PSCL5 TRANSLATION FROM L1D PREFETCHER ACCESS:     126679  HIT:     126679  MISS:          0  HIT %:        100  MISS %:          0   MPKI: 0
PSCL5 PREFETCH  REQUESTED:          0  ISSUED:          0  USEFUL:          0  USELESS:          0
PSCL5 USEFUL LOAD PREFETCHES:          0 PREFETCH ISSUED TO LOWER LEVEL:          0  ACCURACY: -nan
PSCL5 TIMELY PREFETCHES:          0 LATE PREFETCHES: 0 DROPPED PREFETCHES: 0
PSCL5 PREFETCHES SAME FILL-ORIGIN LEVEL: 0 DIFFERENT FILL-ORIGIN LEVEL: 0

PSCL4 TOTAL     ACCESS:     270020  HIT:     270020  MISS:          0  HIT %:        100  MISS %:          0   MPKI: 0
PSCL4 LOAD TRANSLATION ACCESS:     143341  HIT:     143341  MISS:          0  HIT %:        100  MISS %:          0   MPKI: 0
PSCL4 TRANSLATION FROM L1D PREFETCHER ACCESS:     126679  HIT:     126679  MISS:          0  HIT %:        100  MISS %:          0   MPKI: 0
PSCL4 PREFETCH  REQUESTED:          0  ISSUED:          0  USEFUL:          0  USELESS:          0
PSCL4 USEFUL LOAD PREFETCHES:          0 PREFETCH ISSUED TO LOWER LEVEL:          0  ACCURACY: -nan
PSCL4 TIMELY PREFETCHES:          0 LATE PREFETCHES: 0 DROPPED PREFETCHES: 0
PSCL4 PREFETCHES SAME FILL-ORIGIN LEVEL: 0 DIFFERENT FILL-ORIGIN LEVEL: 0

PSCL3 TOTAL     ACCESS:     270020  HIT:     270020  MISS:          0  HIT %:        100  MISS %:          0   MPKI: 0
PSCL3 LOAD TRANSLATION ACCESS:     143341  HIT:     143341  MISS:          0  HIT %:        100  MISS %:          0   MPKI: 0
PSCL3 TRANSLATION FROM L1D PREFETCHER ACCESS:     126679  HIT:     126679  MISS:          0  HIT %:        100  MISS %:          0   MPKI: 0
PSCL3 PREFETCH  REQUESTED:          0  ISSUED:          0  USEFUL:          0  USELESS:          0
PSCL3 USEFUL LOAD PREFETCHES:          0 PREFETCH ISSUED TO LOWER LEVEL:          0  ACCURACY: -nan
PSCL3 TIMELY PREFETCHES:          0 LATE PREFETCHES: 0 DROPPED PREFETCHES: 0
PSCL3 PREFETCHES SAME FILL-ORIGIN LEVEL: 0 DIFFERENT FILL-ORIGIN LEVEL: 0

PSCL2 TOTAL     ACCESS:     270020  HIT:     243320  MISS:      26700  HIT %:    90.1118  MISS %:    9.88816   MPKI: 0.534
PSCL2 LOAD TRANSLATION ACCESS:     157190  HIT:     130490  MISS:      26700  HIT %:    83.0142  MISS %:    16.9858   MPKI: 0.534
PSCL2 TRANSLATION FROM L1D PREFETCHER ACCESS:     112830  HIT:     112830  MISS:          0  HIT %:        100  MISS %:          0   MPKI: 0
PSCL2 PREFETCH  REQUESTED:          0  ISSUED:          0  USEFUL:          0  USELESS:          0
PSCL2 USEFUL LOAD PREFETCHES:          0 PREFETCH ISSUED TO LOWER LEVEL:          0  ACCURACY: -nan
PSCL2 TIMELY PREFETCHES:          0 LATE PREFETCHES: 0 DROPPED PREFETCHES: 0
PSCL2 PREFETCHES SAME FILL-ORIGIN LEVEL: 0 DIFFERENT FILL-ORIGIN LEVEL: 0

LLC TOTAL     ACCESS:    2042524  HIT:     769992  MISS:    1272532  HIT %:    37.6981  MISS %:    62.3019   MPKI: 25.4506
LLC LOAD      ACCESS:     642755  HIT:     106947  MISS:     535808  HIT %:    16.6388  MISS %:    83.3612   MPKI: 10.7162
LLC RFO       ACCESS:     143657  HIT:      19139  MISS:     124518  HIT %:    13.3227  MISS %:    86.6773   MPKI: 2.49036
LLC PREFETCH  ACCESS:     690938  HIT:     122436  MISS:     568502  HIT %:    17.7203  MISS %:    82.2797   MPKI: 11.37
AGUS PREFETCH L1 MISS: 0
LLC WRITEBACK ACCESS:     446125  HIT:     444685  MISS:       1440  HIT %:    99.6772  MISS %:   0.322779   MPKI: 0.0288
LLC LOAD TRANSLATION ACCESS:      60065  HIT:      41964  MISS:      18101  HIT %:    69.8643  MISS %:    30.1357   MPKI: 0.36202
LLC TRANSLATION FROM L1D PREFETCHER ACCESS:      58984  HIT:      34821  MISS:      24163  HIT %:    59.0347  MISS %:    40.9653   MPKI: 0.48326
LLC PREFETCH  REQUESTED:          0  ISSUED:          0  USEFUL:      38405  USELESS:     555568
LLC USEFUL LOAD PREFETCHES:      38405 PREFETCH ISSUED TO LOWER LEVEL:     568503  ACCURACY: 6.75546
LLC TIMELY PREFETCHES:      38405 LATE PREFETCHES: 0 DROPPED PREFETCHES: 0
LLC PREFETCHES SAME FILL-ORIGIN LEVEL: 0 DIFFERENT FILL-ORIGIN LEVEL: 0
LLC AVERAGE MISS LATENCY: 171.306 cycles
LLC RQ	ACCESS:     905461	FORWARD:          0	MERGED:          0	TO_CACHE:     905461
LLC WQ	ACCESS:     446125	FORWARD:          0	MERGED:          0	TO_CACHE:     446125
LLC PQ	ACCESS:     690939	FORWARD:          0	MERGED:          0	TO_CACHE:     690939

LLC Dense regions hint to LLC: 0

RAW hits: 835717
Loads Generated: 14875435
Loads sent to L1D: 14039718
Stores Generated: 8476009
Stores sent to L1D: 8476021
Major fault: 0 Minor fault: 33441
Allocated PAGES: 33441

stream: 
stream:times selected: 4301477
stream:pref_filled: 765095
stream:pref_useful: 135431
stream:pref_late: 15819
stream:misses: 28108
stream:misses_by_poll: 0

CS: 
CS:times selected: 56416
CS:pref_filled: 21250
CS:pref_useful: 4417
CS:pref_late: 247
CS:misses: 658
CS:misses_by_poll: 1

CPLX: 
CPLX:times selected: 4260532
CPLX:pref_filled: 234630
CPLX:pref_useful: 9355
CPLX:pref_late: 1297
CPLX:misses: 87732
CPLX:misses_by_poll: 119

ISB: 
ISB:times selected:3793650
ISB:pref_filled: 496078
ISB:pref_useful: 304618
ISB:pref_late: 18487
ISB:misses: 406388
ISB:misses_by_poll: 618

NL_L1: 
NL:times selected: 14025
NL:pref_filled: 4227
NL:pref_useful: 597
NL:pref_late: 79
NL:misses: 2537
NL:misses_by_poll: 0

total selections: 12426100
total_filled: 831813
total_useful: 261389
total_late: 38067
total_polluted: 738
total_misses_after_warmup: 877203
conflicts: 4579292

test: 2671785

DRAM Statistics
 CHANNEL 0
 RQ ROW_BUFFER_HIT:     143250  ROW_BUFFER_MISS:    1127821
 DBUS_CONGESTED:        692
 WQ ROW_BUFFER_HIT:     119163  ROW_BUFFER_MISS:     262728  FULL:          0

 AVG_CONGESTED_CYCLE: 4
 All warmup complete: 2
Channel 0 Bank busy for read cycles: 0
Channel 0 Bank busy for write cycles: 0
Channel 0
Rank 0
0banks busy for read cycles: 55104847
0banks busy for write cycles: 122994
1banks busy for read cycles: 55054870
1banks busy for write cycles: 18964081
2banks busy for read cycles: 26571474
2banks busy for write cycles: 10254451
3banks busy for read cycles: 11847605
3banks busy for write cycles: 5802384
4banks busy for read cycles: 4771177
4banks busy for write cycles: 3255961
5banks busy for read cycles: 1811318
5banks busy for write cycles: 1758790
6banks busy for read cycles: 556262
6banks busy for write cycles: 880379
7banks busy for read cycles: 133588
7banks busy for write cycles: 440052
8banks busy for read cycles: 23123
8banks busy for write cycles: 209111

CPU 0 Branch Prediction Accuracy: 94.0755% MPKI: 14.2353 Average ROB Occupancy at Mispredict: 26.2054
Branch types
NOT_BRANCH: 37985796 75.9716%
BRANCH_DIRECT_JUMP: 964405 1.92881%
BRANCH_INDIRECT: 140341 0.280682%
BRANCH_CONDITIONAL: 7911981 15.824%
BRANCH_DIRECT_CALL: 1294152 2.5883%
BRANCH_INDIRECT_CALL: 204449 0.408898%
BRANCH_RETURN: 1498606 2.99721%
BRANCH_OTHER: 0 0%

DRAM PAGES: 1048576
Allocated PAGES: 33441
