
*** ChampSim Multicore Out-of-Order Simulator ***

Warmup Instructions: 50000000
Simulation Instructions: 50000000
Number of CPUs: 1
LLC sets: 2048
LLC ways: 16
Off-chip DRAM Size: 4096 MB Channels: 1 Width: 64-bit Data Rate: 6400 MT/s
CPU 0 runs traces/SPEC-CPU2017/471.omnetpp-188B.champsimtrace.xz
.xz
CPU 0 Bimodal branch predictor
BTB has LRU replacement policy
ITLB has LRU replacement policy
DTLB has LRU replacement policy
STLB has LRU replacement policy
L1I has LRU replacement policy
L1D has LRU replacement policy
L2C has LRU replacement policy
LLC has LRU replacement policy
Heartbeat CPU 0 instructions: 10000001 cycles: 3274814 heartbeat IPC: 3.05361 cumulative IPC: 3.05361 (Simulation time: 0 hr 3 min 31 sec) 
Heartbeat CPU 0 instructions: 20000000 cycles: 6510079 heartbeat IPC: 3.09094 cumulative IPC: 3.07216 (Simulation time: 0 hr 6 min 54 sec) 
Heartbeat CPU 0 instructions: 30000000 cycles: 9765488 heartbeat IPC: 3.07181 cumulative IPC: 3.07204 (Simulation time: 0 hr 10 min 24 sec) 
Heartbeat CPU 0 instructions: 40000000 cycles: 13011183 heartbeat IPC: 3.081 cumulative IPC: 3.07428 (Simulation time: 0 hr 13 min 49 sec) 
Heartbeat CPU 0 instructions: 50000003 cycles: 16246354 heartbeat IPC: 3.09103 cumulative IPC: 3.07761 (Simulation time: 0 hr 17 min 15 sec) 

Warmup complete CPU 0 instructions: 50000003 cycles: 16246354 (Simulation time: 0 hr 17 min 15 sec) 

Heartbeat CPU 0 instructions: 60000000 cycles: 56238201 heartbeat IPC: 0.250051 cumulative IPC: 0.250051 (Simulation time: 0 hr 18 min 19 sec) 
Heartbeat CPU 0 instructions: 70000001 cycles: 94719637 heartbeat IPC: 0.259866 cumulative IPC: 0.254864 (Simulation time: 0 hr 19 min 23 sec) 
Heartbeat CPU 0 instructions: 80000000 cycles: 135237823 heartbeat IPC: 0.246803 cumulative IPC: 0.252119 (Simulation time: 0 hr 20 min 31 sec) 
Heartbeat CPU 0 instructions: 90000003 cycles: 175597629 heartbeat IPC: 0.247771 cumulative IPC: 0.251018 (Simulation time: 0 hr 21 min 36 sec) 
Heartbeat CPU 0 instructions: 100000000 cycles: 215881754 heartbeat IPC: 0.248237 cumulative IPC: 0.250457 (Simulation time: 0 hr 22 min 42 sec) 
Finished CPU 0 instructions: 50000000 cycles: 199635409 cumulative IPC: 0.250457 (Simulation time: 0 hr 22 min 42 sec) 

ChampSim completed all CPUs

Region of Interest Statistics

CPU 0 cumulative IPC: 0.250457 instructions: 50000000 cycles: 199635409
ITLB TOTAL     ACCESS:    8721908  HIT:    8704705  MISS:      17203  HIT %:    99.8028  MISS %:   0.197239   MPKI: 0.34406
ITLB LOAD TRANSLATION ACCESS:    8721908  HIT:    8704705  MISS:      17203  HIT %:    99.8028  MISS %:   0.197239   MPKI: 0.34406
ITLB PREFETCH  REQUESTED:          0  ISSUED:          0  USEFUL:          0  USELESS:          0
ITLB USEFUL LOAD PREFETCHES:          0 PREFETCH ISSUED TO LOWER LEVEL:          0  ACCURACY: -nan
ITLB TIMELY PREFETCHES:          0 LATE PREFETCHES: 0 DROPPED PREFETCHES: 0
ITLB PREFETCHES SAME FILL-ORIGIN LEVEL: 0 DIFFERENT FILL-ORIGIN LEVEL: 0
ITLB AVERAGE MISS LATENCY: 12.1529 cycles
ITLB RQ	ACCESS:    9812766	FORWARD:          0	MERGED:    1083242	TO_CACHE:    8729524

DTLB TOTAL     ACCESS:   14655755  HIT:   13698308  MISS:     957447  HIT %:    93.4671  MISS %:    6.53291   MPKI: 19.1489
DTLB LOAD TRANSLATION ACCESS:   14655755  HIT:   13698308  MISS:     957447  HIT %:    93.4671  MISS %:    6.53291   MPKI: 19.1489
DTLB PREFETCH  REQUESTED:          0  ISSUED:          0  USEFUL:          0  USELESS:          0
DTLB USEFUL LOAD PREFETCHES:          0 PREFETCH ISSUED TO LOWER LEVEL:          0  ACCURACY: -nan
DTLB TIMELY PREFETCHES:          0 LATE PREFETCHES: 0 DROPPED PREFETCHES: 0
DTLB PREFETCHES SAME FILL-ORIGIN LEVEL: 0 DIFFERENT FILL-ORIGIN LEVEL: 0
DTLB AVERAGE MISS LATENCY: 20.0896 cycles
DTLB RQ	ACCESS:   17830633	FORWARD:          0	MERGED:    3129358	TO_CACHE:   14701275

STLB TOTAL     ACCESS:    3865735  HIT:    3428543  MISS:     437192  HIT %:    88.6906  MISS %:    11.3094   MPKI: 8.74384
STLB LOAD TRANSLATION ACCESS:     974650  HIT:     821390  MISS:     153260  HIT %:    84.2754  MISS %:    15.7246   MPKI: 3.0652
STLB TRANSLATION FROM L1D PREFETCHER ACCESS:    2891085  HIT:    2607153  MISS:     283932  HIT %:    90.1791  MISS %:    9.82095   MPKI: 5.67864
STLB PREFETCH  REQUESTED:          0  ISSUED:          0  USEFUL:     179092  USELESS:     104849
STLB USEFUL LOAD PREFETCHES:     179092 PREFETCH ISSUED TO LOWER LEVEL:          0  ACCURACY: inf
STLB TIMELY PREFETCHES:     179092 LATE PREFETCHES: 1022 DROPPED PREFETCHES: 0
STLB PREFETCHES SAME FILL-ORIGIN LEVEL: 0 DIFFERENT FILL-ORIGIN LEVEL: 0
STLB AVERAGE MISS LATENCY: 82.4439 cycles
STLB RQ	ACCESS:    4374952	FORWARD:          0	MERGED:     506230	TO_CACHE:    3868722

STLB Hit, L1D data hit: 0
STLB Hit, L2C data hit: 0
STLB Hit, LLC data hit: 0
STLB Hit, LLC data miss: 0
STLB STLB hints to L2: 0
L1D TOTAL     ACCESS:   20651151  HIT:   18605826  MISS:    2045325  HIT %:    90.0958  MISS %:    9.90417   MPKI: 40.9065
L1D LOAD      ACCESS:    9466961  HIT:    8651230  MISS:     815731  HIT %:    91.3834  MISS %:    8.61661   MPKI: 16.3146
L1D RFO       ACCESS:    7871843  HIT:    7711554  MISS:     160289  HIT %:    97.9638  MISS %:    2.03623   MPKI: 3.20578
L1D PREFETCH  ACCESS:    3312347  HIT:    2243042  MISS:    1069305  HIT %:    67.7176  MISS %:    32.2824   MPKI: 21.3861
AGUS PREFETCH L1 MISS: 0
L1D PREFETCH  REQUESTED:    7130023  ISSUED:    6842571  USEFUL:     243590  USELESS:     825751
L1D USEFUL LOAD PREFETCHES:     243590 PREFETCH ISSUED TO LOWER LEVEL:    1099046  ACCURACY: 22.1638
L1D TIMELY PREFETCHES:     243590 LATE PREFETCHES: 28588 DROPPED PREFETCHES: 0
L1D PREFETCHES SAME FILL-ORIGIN LEVEL: 1099046 DIFFERENT FILL-ORIGIN LEVEL: 0
L1D AVERAGE MISS LATENCY: 156.768 cycles
L1D RQ	ACCESS:   14040771	FORWARD:          0	MERGED:    4041433	TO_CACHE:    9559994
L1D WQ	ACCESS:    8476021	FORWARD:     439580	MERGED:     205382	TO_CACHE:    8270639
L1D PQ	ACCESS:    3442269	FORWARD:          0	MERGED:      41731	TO_CACHE:    3400302

L1D UNIQUE REGIONS ACCESSED: 0
L1D REGIONS CONFLICTS: 0
L1D Cross Page Prefetch Requests: 2823515
L1D Same Page Prefetch Requests: 3750806
L1D ROI Sum of L1D PQ occupancy: 106587188
L1D PREFETCHES PUSHED FROM L2C: 0
L1I TOTAL     ACCESS:    9812467  HIT:    9810926  MISS:       1541  HIT %:    99.9843  MISS %:  0.0157045   MPKI: 0.03082
L1I LOAD      ACCESS:    9812467  HIT:    9810926  MISS:       1541  HIT %:    99.9843  MISS %:  0.0157045   MPKI: 0.03082
L1I PREFETCH  REQUESTED:          0  ISSUED:          0  USEFUL:          0  USELESS:          0
L1I USEFUL LOAD PREFETCHES:          0 PREFETCH ISSUED TO LOWER LEVEL:          0  ACCURACY: -nan
L1I TIMELY PREFETCHES:          0 LATE PREFETCHES: 0 DROPPED PREFETCHES: 0
L1I PREFETCHES SAME FILL-ORIGIN LEVEL: 0 DIFFERENT FILL-ORIGIN LEVEL: 0
L1I AVERAGE MISS LATENCY: 161.083 cycles
L1I RQ	ACCESS:   14774751	FORWARD:          0	MERGED:    4961985	TO_CACHE:    9812766

BTB TOTAL     ACCESS:   10008119  HIT:    9487971  MISS:     520148  HIT %:    94.8027  MISS %:    5.19726   MPKI: 10.403
BTB BRANCH_DIRECT_JUMP	ACCESS:     964405  HIT:     964243  MISS:        162
BTB BRANCH_INDIRECT	ACCESS:     140341  HIT:     116325  MISS:      24016
BTB BRANCH_CONDITIONAL	ACCESS:    5906166  HIT:    5905777  MISS:        389
BTB BRANCH_DIRECT_CALL	ACCESS:    1294152  HIT:    1293861  MISS:        291
BTB BRANCH_INDIRECT_CALL	ACCESS:     204449  HIT:     203146  MISS:       1303
BTB BRANCH_RETURN	ACCESS:    1498606  HIT:    1004619  MISS:     493987
BTB BRANCH_OTHER ACCESS:          0  HIT:          0  MISS:          0

L2C TOTAL     ACCESS:    3089373  HIT:    1233803  MISS:    1855570  HIT %:     39.937  MISS %:     60.063   MPKI: 37.1114
L2C LOAD      ACCESS:     788653  HIT:     139144  MISS:     649509  HIT %:    17.6432  MISS %:    82.3568   MPKI: 12.9902
L2C DATA LOAD MPKI: 12.963
L2C INSTRUCTION LOAD MPKI: 0.0272
L2C RFO       ACCESS:     159135  HIT:      13005  MISS:     146130  HIT %:    8.17231  MISS %:    91.8277   MPKI: 2.9226
L2C PREFETCH  ACCESS:    1099024  HIT:     233207  MISS:     865817  HIT %:    21.2195  MISS %:    78.7805   MPKI: 17.3163
AGUS PREFETCH L1 MISS: 0
L2C DATA PREFETCH MPKI: 17.3163
L2C INSTRUCTION PREFETCH MPKI: 0
L2C WRITEBACK ACCESS:     506788  HIT:     504437  MISS:       2351  HIT %:    99.5361  MISS %:   0.463902   MPKI: 0.04702
L2C LOAD TRANSLATION ACCESS:     176187  HIT:     123207  MISS:      52980  HIT %:    69.9297  MISS %:    30.0703   MPKI: 1.0596
L2C TRANSLATION FROM L1D PREFETCHER ACCESS:     359586  HIT:     220803  MISS:     138783  HIT %:    61.4048  MISS %:    38.5952   MPKI: 2.77566
L2C PREFETCH  REQUESTED:          0  ISSUED:          0  USEFUL:      98000  USELESS:     906284
L2C USEFUL LOAD PREFETCHES:      98000 PREFETCH ISSUED TO LOWER LEVEL:     865817  ACCURACY: 11.3188
L2C TIMELY PREFETCHES:      98000 LATE PREFETCHES: 0 DROPPED PREFETCHES: 0
L2C PREFETCHES SAME FILL-ORIGIN LEVEL: 0 DIFFERENT FILL-ORIGIN LEVEL: 0
L2C AVERAGE MISS LATENCY: 165.144 cycles
L2C RQ	ACCESS:    1483593	FORWARD:          0	MERGED:          0	TO_CACHE:    1483561
L2C WQ	ACCESS:     506788	FORWARD:         54	MERGED:          0	TO_CACHE:     506788
L2C PQ	ACCESS:    1099046	FORWARD:          0	MERGED:          0	TO_CACHE:    1099024

L2C Instructions Evicting Data 1254
L2C Translations Evicting Data 170653
L2C Data Evicting Data 1487836
L2C Instructions Evicting Instructions 8
L2C Translations Evicting Instructions 130
L2C Data Evicting Instructions 1222
L2C Instructions Evicting Translations 98
L2C Translations Evicting Translations 20980
L2C Data Evicting Translations 171038
L2C Dense regions hint from L2: 0
PSCL5 TOTAL     ACCESS:     437192  HIT:     437192  MISS:          0  HIT %:        100  MISS %:          0   MPKI: 0
PSCL5 LOAD TRANSLATION ACCESS:     152238  HIT:     152238  MISS:          0  HIT %:        100  MISS %:          0   MPKI: 0
PSCL5 TRANSLATION FROM L1D PREFETCHER ACCESS:     284954  HIT:     284954  MISS:          0  HIT %:        100  MISS %:          0   MPKI: 0
PSCL5 PREFETCH  REQUESTED:          0  ISSUED:          0  USEFUL:          0  USELESS:          0
PSCL5 USEFUL LOAD PREFETCHES:          0 PREFETCH ISSUED TO LOWER LEVEL:          0  ACCURACY: -nan
PSCL5 TIMELY PREFETCHES:          0 LATE PREFETCHES: 0 DROPPED PREFETCHES: 0
PSCL5 PREFETCHES SAME FILL-ORIGIN LEVEL: 0 DIFFERENT FILL-ORIGIN LEVEL: 0

PSCL4 TOTAL     ACCESS:     437192  HIT:     437192  MISS:          0  HIT %:        100  MISS %:          0   MPKI: 0
PSCL4 LOAD TRANSLATION ACCESS:     152238  HIT:     152238  MISS:          0  HIT %:        100  MISS %:          0   MPKI: 0
PSCL4 TRANSLATION FROM L1D PREFETCHER ACCESS:     284954  HIT:     284954  MISS:          0  HIT %:        100  MISS %:          0   MPKI: 0
PSCL4 PREFETCH  REQUESTED:          0  ISSUED:          0  USEFUL:          0  USELESS:          0
PSCL4 USEFUL LOAD PREFETCHES:          0 PREFETCH ISSUED TO LOWER LEVEL:          0  ACCURACY: -nan
PSCL4 TIMELY PREFETCHES:          0 LATE PREFETCHES: 0 DROPPED PREFETCHES: 0
PSCL4 PREFETCHES SAME FILL-ORIGIN LEVEL: 0 DIFFERENT FILL-ORIGIN LEVEL: 0

PSCL3 TOTAL     ACCESS:     437192  HIT:     437192  MISS:          0  HIT %:        100  MISS %:          0   MPKI: 0
PSCL3 LOAD TRANSLATION ACCESS:     152238  HIT:     152238  MISS:          0  HIT %:        100  MISS %:          0   MPKI: 0
PSCL3 TRANSLATION FROM L1D PREFETCHER ACCESS:     284954  HIT:     284954  MISS:          0  HIT %:        100  MISS %:          0   MPKI: 0
PSCL3 PREFETCH  REQUESTED:          0  ISSUED:          0  USEFUL:          0  USELESS:          0
PSCL3 USEFUL LOAD PREFETCHES:          0 PREFETCH ISSUED TO LOWER LEVEL:          0  ACCURACY: -nan
PSCL3 TIMELY PREFETCHES:          0 LATE PREFETCHES: 0 DROPPED PREFETCHES: 0
PSCL3 PREFETCHES SAME FILL-ORIGIN LEVEL: 0 DIFFERENT FILL-ORIGIN LEVEL: 0

PSCL2 TOTAL     ACCESS:     437192  HIT:     338610  MISS:      98582  HIT %:    77.4511  MISS %:    22.5489   MPKI: 1.97164
PSCL2 LOAD TRANSLATION ACCESS:     226870  HIT:     128288  MISS:      98582  HIT %:    56.5469  MISS %:    43.4531   MPKI: 1.97164
PSCL2 TRANSLATION FROM L1D PREFETCHER ACCESS:     210322  HIT:     210322  MISS:          0  HIT %:        100  MISS %:          0   MPKI: 0
PSCL2 PREFETCH  REQUESTED:          0  ISSUED:          0  USEFUL:          0  USELESS:          0
PSCL2 USEFUL LOAD PREFETCHES:          0 PREFETCH ISSUED TO LOWER LEVEL:          0  ACCURACY: -nan
PSCL2 TIMELY PREFETCHES:          0 LATE PREFETCHES: 0 DROPPED PREFETCHES: 0
PSCL2 PREFETCHES SAME FILL-ORIGIN LEVEL: 0 DIFFERENT FILL-ORIGIN LEVEL: 0

LLC TOTAL     ACCESS:    2303431  HIT:     877426  MISS:    1426005  HIT %:    38.0921  MISS %:    61.9079   MPKI: 28.5201
LLC LOAD      ACCESS:     649509  HIT:     107939  MISS:     541570  HIT %:    16.6186  MISS %:    83.3814   MPKI: 10.8314
LLC RFO       ACCESS:     146130  HIT:      20526  MISS:     125604  HIT %:    14.0464  MISS %:    85.9536   MPKI: 2.51208
LLC PREFETCH  ACCESS:     865817  HIT:     165607  MISS:     700210  HIT %:    19.1273  MISS %:    80.8727   MPKI: 14.0042
AGUS PREFETCH L1 MISS: 0
LLC WRITEBACK ACCESS:     450212  HIT:     448587  MISS:       1625  HIT %:    99.6391  MISS %:   0.360941   MPKI: 0.0325
LLC LOAD TRANSLATION ACCESS:      52980  HIT:      41291  MISS:      11689  HIT %:     77.937  MISS %:     22.063   MPKI: 0.23378
LLC TRANSLATION FROM L1D PREFETCHER ACCESS:     138783  HIT:      93476  MISS:      45307  HIT %:    67.3541  MISS %:    32.6459   MPKI: 0.90614
LLC PREFETCH  REQUESTED:          0  ISSUED:          0  USEFUL:      56233  USELESS:     689872
LLC USEFUL LOAD PREFETCHES:      56233 PREFETCH ISSUED TO LOWER LEVEL:     700210  ACCURACY: 8.03088
LLC TIMELY PREFETCHES:      56233 LATE PREFETCHES: 0 DROPPED PREFETCHES: 0
LLC PREFETCHES SAME FILL-ORIGIN LEVEL: 0 DIFFERENT FILL-ORIGIN LEVEL: 0
LLC AVERAGE MISS LATENCY: 175.853 cycles
LLC RQ	ACCESS:     987402	FORWARD:          0	MERGED:          0	TO_CACHE:     987402
LLC WQ	ACCESS:     450212	FORWARD:          0	MERGED:          0	TO_CACHE:     450212
LLC PQ	ACCESS:     865817	FORWARD:          0	MERGED:          0	TO_CACHE:     865817

LLC Dense regions hint to LLC: 0

RAW hits: 834664
Loads Generated: 14875435
Loads sent to L1D: 14040771
Stores Generated: 8476009
Stores sent to L1D: 8476021
Major fault: 0 Minor fault: 33441
Allocated PAGES: 33441

stream: 
stream:times selected: 4300492
stream:pref_filled: 772836
stream:pref_useful: 133574
stream:pref_late: 15151
stream:misses: 21021
stream:misses_by_poll: 0

CS: 
CS:times selected: 56522
CS:pref_filled: 21050
CS:pref_useful: 4317
CS:pref_late: 286
CS:misses: 579
CS:misses_by_poll: 3

CPLX: 
CPLX:times selected: 4259985
CPLX:pref_filled: 224044
CPLX:pref_useful: 8976
CPLX:pref_late: 1359
CPLX:misses: 66036
CPLX:misses_by_poll: 115

ISB: 
ISB:times selected:4022778
ISB:pref_filled: 920524
ISB:pref_useful: 277288
ISB:pref_late: 22590
ISB:misses: 469441
ISB:misses_by_poll: 1672

NL_L1: 
NL:times selected: 6038
NL:pref_filled: 2182
NL:pref_useful: 338
NL:pref_late: 47
NL:misses: 1403
NL:misses_by_poll: 0

total selections: 12645815
total_filled: 1069305
total_useful: 243590
total_late: 41050
total_polluted: 1790
total_misses_after_warmup: 908764
conflicts: 4579529

test: 2671122

DRAM Statistics
 CHANNEL 0
 RQ ROW_BUFFER_HIT:     136681  ROW_BUFFER_MISS:    1287662
 DBUS_CONGESTED:        611
 WQ ROW_BUFFER_HIT:     123314  ROW_BUFFER_MISS:     265289  FULL:          0

 AVG_CONGESTED_CYCLE: 4
 All warmup complete: 2
Channel 0 Bank busy for read cycles: 0
Channel 0 Bank busy for write cycles: 0
Channel 0
Rank 0
0banks busy for read cycles: 48258883
0banks busy for write cycles: 115975
1banks busy for read cycles: 57270988
1banks busy for write cycles: 18027659
2banks busy for read cycles: 29199001
2banks busy for write cycles: 9975644
3banks busy for read cycles: 14046301
3banks busy for write cycles: 5869302
4banks busy for read cycles: 5968778
4banks busy for write cycles: 3501079
5banks busy for read cycles: 2406330
5banks busy for write cycles: 2012270
6banks busy for read cycles: 793901
6banks busy for write cycles: 1073405
7banks busy for read cycles: 183166
7banks busy for write cycles: 565686
8banks busy for read cycles: 28395
8banks busy for write cycles: 338647

CPU 0 Branch Prediction Accuracy: 94.0755% MPKI: 14.2353 Average ROB Occupancy at Mispredict: 26.2268
Branch types
NOT_BRANCH: 37985796 75.9716%
BRANCH_DIRECT_JUMP: 964405 1.92881%
BRANCH_INDIRECT: 140341 0.280682%
BRANCH_CONDITIONAL: 7911981 15.824%
BRANCH_DIRECT_CALL: 1294152 2.5883%
BRANCH_INDIRECT_CALL: 204449 0.408898%
BRANCH_RETURN: 1498606 2.99721%
BRANCH_OTHER: 0 0%

DRAM PAGES: 1048576
Allocated PAGES: 33441
