
*** ChampSim Multicore Out-of-Order Simulator ***

Warmup Instructions: 50000000
Simulation Instructions: 50000000
Number of CPUs: 1
LLC sets: 2048
LLC ways: 16
Off-chip DRAM Size: 4096 MB Channels: 1 Width: 64-bit Data Rate: 6400 MT/s
CPU 0 runs traces/SPEC-CPU2017/471.omnetpp-188B.champsimtrace.xz
.xz
CPU 0 Bimodal branch predictor
BTB has LRU replacement policy
ITLB has LRU replacement policy
DTLB has LRU replacement policy
STLB has LRU replacement policy
L1I has LRU replacement policy
L1D has LRU replacement policy
L2C has LRU replacement policy
LLC has LRU replacement policy
Heartbeat CPU 0 instructions: 10000001 cycles: 3263960 heartbeat IPC: 3.06376 cumulative IPC: 3.06376 (Simulation time: 0 hr 0 min 59 sec) 
Heartbeat CPU 0 instructions: 20000000 cycles: 6487188 heartbeat IPC: 3.10248 cumulative IPC: 3.083 (Simulation time: 0 hr 1 min 55 sec) 
Heartbeat CPU 0 instructions: 30000000 cycles: 9734287 heartbeat IPC: 3.07967 cumulative IPC: 3.08189 (Simulation time: 0 hr 2 min 54 sec) 
Heartbeat CPU 0 instructions: 40000000 cycles: 12971665 heartbeat IPC: 3.08892 cumulative IPC: 3.08364 (Simulation time: 0 hr 3 min 53 sec) 
Heartbeat CPU 0 instructions: 50000003 cycles: 16195823 heartbeat IPC: 3.10159 cumulative IPC: 3.08722 (Simulation time: 0 hr 4 min 51 sec) 

Warmup complete CPU 0 instructions: 50000003 cycles: 16195823 (Simulation time: 0 hr 4 min 51 sec) 

Heartbeat CPU 0 instructions: 60000000 cycles: 51755560 heartbeat IPC: 0.281217 cumulative IPC: 0.281217 (Simulation time: 0 hr 5 min 53 sec) 
Heartbeat CPU 0 instructions: 70000001 cycles: 86120110 heartbeat IPC: 0.290998 cumulative IPC: 0.286024 (Simulation time: 0 hr 6 min 57 sec) 
Heartbeat CPU 0 instructions: 80000000 cycles: 120802558 heartbeat IPC: 0.28833 cumulative IPC: 0.286788 (Simulation time: 0 hr 8 min 4 sec) 
Heartbeat CPU 0 instructions: 90000003 cycles: 155454335 heartbeat IPC: 0.288586 cumulative IPC: 0.287236 (Simulation time: 0 hr 9 min 8 sec) 
Heartbeat CPU 0 instructions: 100000000 cycles: 190405897 heartbeat IPC: 0.28611 cumulative IPC: 0.28701 (Simulation time: 0 hr 10 min 15 sec) 
Finished CPU 0 instructions: 50000000 cycles: 174210083 cumulative IPC: 0.28701 (Simulation time: 0 hr 10 min 15 sec) 

ChampSim completed all CPUs

Region of Interest Statistics

CPU 0 cumulative IPC: 0.28701 instructions: 50000000 cycles: 174210083
ITLB TOTAL     ACCESS:    8716480  HIT:    8699277  MISS:      17203  HIT %:    99.8026  MISS %:   0.197362   MPKI: 0.34406
ITLB LOAD TRANSLATION ACCESS:    8716480  HIT:    8699277  MISS:      17203  HIT %:    99.8026  MISS %:   0.197362   MPKI: 0.34406
ITLB PREFETCH  REQUESTED:          0  ISSUED:          0  USEFUL:          0  USELESS:          0
ITLB USEFUL LOAD PREFETCHES:          0 PREFETCH ISSUED TO LOWER LEVEL:          0  ACCURACY: -nan
ITLB TIMELY PREFETCHES:          0 LATE PREFETCHES: 0 DROPPED PREFETCHES: 0
ITLB PREFETCHES SAME FILL-ORIGIN LEVEL: 0 DIFFERENT FILL-ORIGIN LEVEL: 0
ITLB AVERAGE MISS LATENCY: 11.9472 cycles
ITLB RQ	ACCESS:    9805228	FORWARD:          0	MERGED:    1081130	TO_CACHE:    8724098

DTLB TOTAL     ACCESS:   14691416  HIT:   13733692  MISS:     957724  HIT %:    93.4811  MISS %:    6.51894   MPKI: 19.1545
DTLB LOAD TRANSLATION ACCESS:   14691416  HIT:   13733692  MISS:     957724  HIT %:    93.4811  MISS %:    6.51894   MPKI: 19.1545
DTLB PREFETCH  REQUESTED:          0  ISSUED:          0  USEFUL:          0  USELESS:          0
DTLB USEFUL LOAD PREFETCHES:          0 PREFETCH ISSUED TO LOWER LEVEL:          0  ACCURACY: -nan
DTLB TIMELY PREFETCHES:          0 LATE PREFETCHES: 0 DROPPED PREFETCHES: 0
DTLB PREFETCHES SAME FILL-ORIGIN LEVEL: 0 DIFFERENT FILL-ORIGIN LEVEL: 0
DTLB AVERAGE MISS LATENCY: 17.0475 cycles
DTLB RQ	ACCESS:   17852011	FORWARD:          0	MERGED:    3115699	TO_CACHE:   14736312

STLB TOTAL     ACCESS:    2201405  HIT:    1833878  MISS:     367527  HIT %:    83.3049  MISS %:    16.6951   MPKI: 7.35054
STLB LOAD TRANSLATION ACCESS:     974927  HIT:     867859  MISS:     107068  HIT %:    89.0178  MISS %:    10.9822   MPKI: 2.14136
STLB TRANSLATION FROM L1D PREFETCHER ACCESS:    1226478  HIT:     966019  MISS:     260459  HIT %:    78.7637  MISS %:    21.2363   MPKI: 5.20918
STLB PREFETCH  REQUESTED:          0  ISSUED:          0  USEFUL:     163046  USELESS:      97162
STLB USEFUL LOAD PREFETCHES:     163046 PREFETCH ISSUED TO LOWER LEVEL:          0  ACCURACY: inf
STLB TIMELY PREFETCHES:     163046 LATE PREFETCHES: 459 DROPPED PREFETCHES: 0
STLB PREFETCHES SAME FILL-ORIGIN LEVEL: 0 DIFFERENT FILL-ORIGIN LEVEL: 0
STLB AVERAGE MISS LATENCY: 111.763 cycles
STLB RQ	ACCESS:    2340666	FORWARD:          0	MERGED:     137706	TO_CACHE:    2202960

STLB Hit, L1D data hit: 0
STLB Hit, L2C data hit: 0
STLB Hit, LLC data hit: 0
STLB Hit, LLC data miss: 0
STLB STLB hints to L2: 0
L1D TOTAL     ACCESS:   18715781  HIT:   16824992  MISS:    1890789  HIT %:    89.8974  MISS %:    10.1026   MPKI: 37.8158
L1D LOAD      ACCESS:    9498727  HIT:    8879496  MISS:     619231  HIT %:    93.4809  MISS %:    6.51909   MPKI: 12.3846
L1D RFO       ACCESS:    7899375  HIT:    7742831  MISS:     156544  HIT %:    98.0183  MISS %:    1.98173   MPKI: 3.13088
L1D PREFETCH  ACCESS:    1317679  HIT:     202665  MISS:    1115014  HIT %:    15.3805  MISS %:    84.6195   MPKI: 22.3003
AGUS PREFETCH L1 MISS: 0
L1D PREFETCH  REQUESTED:    2925813  ISSUED:    2731544  USEFUL:     439946  USELESS:     675160
L1D USEFUL LOAD PREFETCHES:     439946 PREFETCH ISSUED TO LOWER LEVEL:    1126285  ACCURACY: 39.0617
L1D TIMELY PREFETCHES:     439946 LATE PREFETCHES: 10667 DROPPED PREFETCHES: 0
L1D PREFETCHES SAME FILL-ORIGIN LEVEL: 1126285 DIFFERENT FILL-ORIGIN LEVEL: 0
L1D AVERAGE MISS LATENCY: 153.058 cycles
L1D RQ	ACCESS:   14080197	FORWARD:          0	MERGED:    4057304	TO_CACHE:    9569522
L1D WQ	ACCESS:    8476021	FORWARD:     453437	MERGED:     193532	TO_CACHE:    8282489
L1D PQ	ACCESS:    1365805	FORWARD:          0	MERGED:          0	TO_CACHE:    1365739

L1D UNIQUE REGIONS ACCESSED: 0
L1D REGIONS CONFLICTS: 0
L1D Cross Page Prefetch Requests: 1553837
L1D Same Page Prefetch Requests: 1004102
L1D ROI Sum of L1D PQ occupancy: 70096594
L1D PREFETCHES PUSHED FROM L2C: 0
L1I TOTAL     ACCESS:    9804932  HIT:    9803391  MISS:       1541  HIT %:    99.9843  MISS %:  0.0157166   MPKI: 0.03082
L1I LOAD      ACCESS:    9804932  HIT:    9803391  MISS:       1541  HIT %:    99.9843  MISS %:  0.0157166   MPKI: 0.03082
L1I PREFETCH  REQUESTED:          0  ISSUED:          0  USEFUL:          0  USELESS:          0
L1I USEFUL LOAD PREFETCHES:          0 PREFETCH ISSUED TO LOWER LEVEL:          0  ACCURACY: -nan
L1I TIMELY PREFETCHES:          0 LATE PREFETCHES: 0 DROPPED PREFETCHES: 0
L1I PREFETCHES SAME FILL-ORIGIN LEVEL: 0 DIFFERENT FILL-ORIGIN LEVEL: 0
L1I AVERAGE MISS LATENCY: 158.738 cycles
L1I RQ	ACCESS:   14759422	FORWARD:          0	MERGED:    4954194	TO_CACHE:    9805228

BTB TOTAL     ACCESS:   10008119  HIT:    9487971  MISS:     520148  HIT %:    94.8027  MISS %:    5.19726   MPKI: 10.403
BTB BRANCH_DIRECT_JUMP	ACCESS:     964405  HIT:     964243  MISS:        162
BTB BRANCH_INDIRECT	ACCESS:     140341  HIT:     116325  MISS:      24016
BTB BRANCH_CONDITIONAL	ACCESS:    5906166  HIT:    5905777  MISS:        389
BTB BRANCH_DIRECT_CALL	ACCESS:    1294152  HIT:    1293861  MISS:        291
BTB BRANCH_INDIRECT_CALL	ACCESS:     204449  HIT:     203146  MISS:       1303
BTB BRANCH_RETURN	ACCESS:    1498606  HIT:    1004619  MISS:     493987
BTB BRANCH_OTHER ACCESS:          0  HIT:          0  MISS:          0

L2C TOTAL     ACCESS:    2805017  HIT:    1225348  MISS:    1579669  HIT %:    43.6842  MISS %:    56.3158   MPKI: 31.5934
L2C LOAD      ACCESS:     610079  HIT:     192287  MISS:     417792  HIT %:    31.5184  MISS %:    68.4816   MPKI: 8.35584
L2C DATA LOAD MPKI: 8.3288
L2C INSTRUCTION LOAD MPKI: 0.02704
L2C RFO       ACCESS:     155940  HIT:      14804  MISS:     141136  HIT %:    9.49339  MISS %:    90.5066   MPKI: 2.82272
L2C PREFETCH  ACCESS:    1126262  HIT:     251009  MISS:     875253  HIT %:    22.2869  MISS %:    77.7131   MPKI: 17.5051
AGUS PREFETCH L1 MISS: 0
L2C DATA PREFETCH MPKI: 17.5051
L2C INSTRUCTION PREFETCH MPKI: 0
L2C WRITEBACK ACCESS:     507875  HIT:     506322  MISS:       1553  HIT %:    99.6942  MISS %:   0.305784   MPKI: 0.03106
L2C LOAD TRANSLATION ACCESS:     116286  HIT:      79729  MISS:      36557  HIT %:    68.5629  MISS %:    31.4371   MPKI: 0.73114
L2C TRANSLATION FROM L1D PREFETCHER ACCESS:     288575  HIT:     181197  MISS:     107378  HIT %:    62.7903  MISS %:    37.2097   MPKI: 2.14756
L2C PREFETCH  REQUESTED:          0  ISSUED:          0  USEFUL:     146660  USELESS:     836116
L2C USEFUL LOAD PREFETCHES:     146660 PREFETCH ISSUED TO LOWER LEVEL:     875253  ACCURACY: 16.7563
L2C TIMELY PREFETCHES:     146660 LATE PREFETCHES: 0 DROPPED PREFETCHES: 0
L2C PREFETCHES SAME FILL-ORIGIN LEVEL: 0 DIFFERENT FILL-ORIGIN LEVEL: 0
L2C AVERAGE MISS LATENCY: 172.5 cycles
L2C RQ	ACCESS:    1170906	FORWARD:          0	MERGED:          0	TO_CACHE:    1170880
L2C WQ	ACCESS:     507875	FORWARD:         49	MERGED:          0	TO_CACHE:     507875
L2C PQ	ACCESS:    1126285	FORWARD:          0	MERGED:          0	TO_CACHE:    1126262

L2C Instructions Evicting Data 1228
L2C Translations Evicting Data 130311
L2C Data Evicting Data 1300860
L2C Instructions Evicting Instructions 9
L2C Translations Evicting Instructions 122
L2C Data Evicting Instructions 1221
L2C Instructions Evicting Translations 115
L2C Translations Evicting Translations 13502
L2C Data Evicting Translations 130748
L2C Dense regions hint from L2: 0
PSCL5 TOTAL     ACCESS:     367527  HIT:     367527  MISS:          0  HIT %:        100  MISS %:          0   MPKI: 0
PSCL5 LOAD TRANSLATION ACCESS:     106609  HIT:     106609  MISS:          0  HIT %:        100  MISS %:          0   MPKI: 0
PSCL5 TRANSLATION FROM L1D PREFETCHER ACCESS:     260918  HIT:     260918  MISS:          0  HIT %:        100  MISS %:          0   MPKI: 0
PSCL5 PREFETCH  REQUESTED:          0  ISSUED:          0  USEFUL:          0  USELESS:          0
PSCL5 USEFUL LOAD PREFETCHES:          0 PREFETCH ISSUED TO LOWER LEVEL:          0  ACCURACY: -nan
PSCL5 TIMELY PREFETCHES:          0 LATE PREFETCHES: 0 DROPPED PREFETCHES: 0
PSCL5 PREFETCHES SAME FILL-ORIGIN LEVEL: 0 DIFFERENT FILL-ORIGIN LEVEL: 0

PSCL4 TOTAL     ACCESS:     367527  HIT:     367527  MISS:          0  HIT %:        100  MISS %:          0   MPKI: 0
PSCL4 LOAD TRANSLATION ACCESS:     106609  HIT:     106609  MISS:          0  HIT %:        100  MISS %:          0   MPKI: 0
PSCL4 TRANSLATION FROM L1D PREFETCHER ACCESS:     260918  HIT:     260918  MISS:          0  HIT %:        100  MISS %:          0   MPKI: 0
PSCL4 PREFETCH  REQUESTED:          0  ISSUED:          0  USEFUL:          0  USELESS:          0
PSCL4 USEFUL LOAD PREFETCHES:          0 PREFETCH ISSUED TO LOWER LEVEL:          0  ACCURACY: -nan
PSCL4 TIMELY PREFETCHES:          0 LATE PREFETCHES: 0 DROPPED PREFETCHES: 0
PSCL4 PREFETCHES SAME FILL-ORIGIN LEVEL: 0 DIFFERENT FILL-ORIGIN LEVEL: 0

PSCL3 TOTAL     ACCESS:     367527  HIT:     367527  MISS:          0  HIT %:        100  MISS %:          0   MPKI: 0
PSCL3 LOAD TRANSLATION ACCESS:     106609  HIT:     106609  MISS:          0  HIT %:        100  MISS %:          0   MPKI: 0
PSCL3 TRANSLATION FROM L1D PREFETCHER ACCESS:     260918  HIT:     260918  MISS:          0  HIT %:        100  MISS %:          0   MPKI: 0
PSCL3 PREFETCH  REQUESTED:          0  ISSUED:          0  USEFUL:          0  USELESS:          0
PSCL3 USEFUL LOAD PREFETCHES:          0 PREFETCH ISSUED TO LOWER LEVEL:          0  ACCURACY: -nan
PSCL3 TIMELY PREFETCHES:          0 LATE PREFETCHES: 0 DROPPED PREFETCHES: 0
PSCL3 PREFETCHES SAME FILL-ORIGIN LEVEL: 0 DIFFERENT FILL-ORIGIN LEVEL: 0

PSCL2 TOTAL     ACCESS:     367527  HIT:     330192  MISS:      37335  HIT %:    89.8416  MISS %:    10.1584   MPKI: 0.7467
PSCL2 LOAD TRANSLATION ACCESS:     134266  HIT:      96931  MISS:      37335  HIT %:    72.1933  MISS %:    27.8067   MPKI: 0.7467
PSCL2 TRANSLATION FROM L1D PREFETCHER ACCESS:     233261  HIT:     233261  MISS:          0  HIT %:        100  MISS %:          0   MPKI: 0
PSCL2 PREFETCH  REQUESTED:          0  ISSUED:          0  USEFUL:          0  USELESS:          0
PSCL2 USEFUL LOAD PREFETCHES:          0 PREFETCH ISSUED TO LOWER LEVEL:          0  ACCURACY: -nan
PSCL2 TIMELY PREFETCHES:          0 LATE PREFETCHES: 0 DROPPED PREFETCHES: 0
PSCL2 PREFETCHES SAME FILL-ORIGIN LEVEL: 0 DIFFERENT FILL-ORIGIN LEVEL: 0

LLC TOTAL     ACCESS:    2025718  HIT:     846876  MISS:    1178842  HIT %:    41.8062  MISS %:    58.1938   MPKI: 23.5768
LLC LOAD      ACCESS:     417789  HIT:      90328  MISS:     327461  HIT %:    21.6205  MISS %:    78.3795   MPKI: 6.54922
LLC RFO       ACCESS:     141135  HIT:      19989  MISS:     121146  HIT %:     14.163  MISS %:     85.837   MPKI: 2.42292
LLC PREFETCH  ACCESS:     875252  HIT:     184582  MISS:     690670  HIT %:     21.089  MISS %:     78.911   MPKI: 13.8134
AGUS PREFETCH L1 MISS: 0
LLC WRITEBACK ACCESS:     447607  HIT:     446518  MISS:       1089  HIT %:    99.7567  MISS %:   0.243294   MPKI: 0.02178
LLC LOAD TRANSLATION ACCESS:      36557  HIT:      28748  MISS:       7809  HIT %:    78.6388  MISS %:    21.3612   MPKI: 0.15618
LLC TRANSLATION FROM L1D PREFETCHER ACCESS:     107378  HIT:      76711  MISS:      30667  HIT %:    71.4401  MISS %:    28.5599   MPKI: 0.61334
LLC PREFETCH  REQUESTED:          0  ISSUED:          0  USEFUL:      49703  USELESS:     670392
LLC USEFUL LOAD PREFETCHES:      49703 PREFETCH ISSUED TO LOWER LEVEL:     690670  ACCURACY: 7.19635
LLC TIMELY PREFETCHES:      49703 LATE PREFETCHES: 0 DROPPED PREFETCHES: 0
LLC PREFETCHES SAME FILL-ORIGIN LEVEL: 0 DIFFERENT FILL-ORIGIN LEVEL: 0
LLC AVERAGE MISS LATENCY: 190.922 cycles
LLC RQ	ACCESS:     702863	FORWARD:          0	MERGED:          0	TO_CACHE:     702859
LLC WQ	ACCESS:     447607	FORWARD:          5	MERGED:          0	TO_CACHE:     447607
LLC PQ	ACCESS:     875253	FORWARD:          0	MERGED:          0	TO_CACHE:     875252

LLC Dense regions hint to LLC: 0

RAW hits: 795238
Loads Generated: 14875435
Loads sent to L1D: 14080197
Stores Generated: 8476009
Stores sent to L1D: 8476021
Major fault: 0 Minor fault: 33441
Allocated PAGES: 33441

stream: 
stream:times selected: 1010575
stream:pref_filled: 603273
stream:pref_useful: 98831
stream:pref_late: 12155
stream:misses: 242011
stream:misses_by_poll: 0

CS: 
CS:times selected: 19238
CS:pref_filled: 9186
CS:pref_useful: 1402
CS:pref_late: 90
CS:misses: 2932
CS:misses_by_poll: 2

CPLX: 
CPLX:times selected: 1000310
CPLX:pref_filled: 22232
CPLX:pref_useful: 2065
CPLX:pref_late: 72
CPLX:misses: 718507
CPLX:misses_by_poll: 3

NL_L1: 
NL:times selected: 6603
NL:pref_filled: 4095
NL:pref_useful: 833
NL:pref_late: 99
NL:misses: 6639
NL:misses_by_poll: 0

total selections: 2036726
total_filled: 1115014
total_useful: 439946
total_late: 13596
total_polluted: 5
total_misses_after_warmup: 690026
conflicts: 131385

test: 706487
ISB Prefetcher final stats
Training Unit Size: 264
Addr table size: 354658 354671


Triggers: 1010579
No Prediction: 413224 40.8898
Stream end: 411053
No translation: 416798902 41243.6
Predictions: 1603754 158.697


Stream divergence: 222114 21.9789
Stream divergence -- new stream: 0

DRAM Statistics
 CHANNEL 0
 RQ ROW_BUFFER_HIT:     125698  ROW_BUFFER_MISS:    1052031
 DBUS_CONGESTED:        228
 WQ ROW_BUFFER_HIT:      61060  ROW_BUFFER_MISS:     316433  FULL:          0

 AVG_CONGESTED_CYCLE: 4
 All warmup complete: 2
Channel 0 Bank busy for read cycles: 0
Channel 0 Bank busy for write cycles: 0
Channel 0
Rank 0
0banks busy for read cycles: 64762051
0banks busy for write cycles: 111009
1banks busy for read cycles: 34225491
1banks busy for write cycles: 14010675
2banks busy for read cycles: 20394576
2banks busy for write cycles: 7319949
3banks busy for read cycles: 10091201
3banks busy for write cycles: 4455949
4banks busy for read cycles: 6039089
4banks busy for write cycles: 2853379
5banks busy for read cycles: 3731890
5banks busy for write cycles: 1792662
6banks busy for read cycles: 1862728
6banks busy for write cycles: 1052257
7banks busy for read cycles: 578563
7banks busy for write cycles: 572829
8banks busy for read cycles: 95363
8banks busy for write cycles: 260423

CPU 0 Branch Prediction Accuracy: 94.0755% MPKI: 14.2353 Average ROB Occupancy at Mispredict: 25.5617
Branch types
NOT_BRANCH: 37985796 75.9716%
BRANCH_DIRECT_JUMP: 964405 1.92881%
BRANCH_INDIRECT: 140341 0.280682%
BRANCH_CONDITIONAL: 7911981 15.824%
BRANCH_DIRECT_CALL: 1294152 2.5883%
BRANCH_INDIRECT_CALL: 204449 0.408898%
BRANCH_RETURN: 1498606 2.99721%
BRANCH_OTHER: 0 0%

DRAM PAGES: 1048576
Allocated PAGES: 33441
