
*** ChampSim Multicore Out-of-Order Simulator ***

Warmup Instructions: 50000000
Simulation Instructions: 50000000
Number of CPUs: 1
LLC sets: 2048
LLC ways: 16
Off-chip DRAM Size: 4096 MB Channels: 1 Width: 64-bit Data Rate: 6400 MT/s
CPU 0 runs traces/SPEC-CPU2017/471.omnetpp-188B.champsimtrace.xz
.xz
CPU 0 Bimodal branch predictor
BTB has LRU replacement policy
ITLB has LRU replacement policy
DTLB has LRU replacement policy
STLB has LRU replacement policy
L1I has LRU replacement policy
L1D has LRU replacement policy
L2C has LRU replacement policy
LLC has LRU replacement policy
Heartbeat CPU 0 instructions: 10000001 cycles: 3274763 heartbeat IPC: 3.05366 cumulative IPC: 3.05366 (Simulation time: 0 hr 10 min 39 sec) 
Heartbeat CPU 0 instructions: 20000000 cycles: 6507956 heartbeat IPC: 3.09292 cumulative IPC: 3.07316 (Simulation time: 0 hr 22 min 34 sec) 
Heartbeat CPU 0 instructions: 30000000 cycles: 9764037 heartbeat IPC: 3.07118 cumulative IPC: 3.0725 (Simulation time: 0 hr 34 min 47 sec) 
Heartbeat CPU 0 instructions: 40000000 cycles: 13009756 heartbeat IPC: 3.08098 cumulative IPC: 3.07462 (Simulation time: 0 hr 47 min 3 sec) 
Heartbeat CPU 0 instructions: 50000003 cycles: 16246321 heartbeat IPC: 3.0897 cumulative IPC: 3.07762 (Simulation time: 0 hr 59 min 4 sec) 

Warmup complete CPU 0 instructions: 50000003 cycles: 16246321 (Simulation time: 0 hr 59 min 4 sec) 

Heartbeat CPU 0 instructions: 60000000 cycles: 54934675 heartbeat IPC: 0.258476 cumulative IPC: 0.258476 (Simulation time: 1 hr 9 min 11 sec) 
Heartbeat CPU 0 instructions: 70000001 cycles: 92413997 heartbeat IPC: 0.266814 cumulative IPC: 0.262579 (Simulation time: 1 hr 20 min 8 sec) 
Heartbeat CPU 0 instructions: 80000000 cycles: 131288133 heartbeat IPC: 0.25724 cumulative IPC: 0.260775 (Simulation time: 1 hr 30 min 50 sec) 
Heartbeat CPU 0 instructions: 90000003 cycles: 170394481 heartbeat IPC: 0.255713 cumulative IPC: 0.259491 (Simulation time: 1 hr 41 min 9 sec) 
Heartbeat CPU 0 instructions: 100000000 cycles: 209278480 heartbeat IPC: 0.257175 cumulative IPC: 0.259024 (Simulation time: 1 hr 51 min 44 sec) 
Finished CPU 0 instructions: 50000000 cycles: 193032168 cumulative IPC: 0.259024 (Simulation time: 1 hr 51 min 44 sec) 

ChampSim completed all CPUs

Region of Interest Statistics

CPU 0 cumulative IPC: 0.259024 instructions: 50000000 cycles: 193032168
ITLB TOTAL     ACCESS:    8719106  HIT:    8701903  MISS:      17203  HIT %:    99.8027  MISS %:   0.197302   MPKI: 0.34406
ITLB LOAD TRANSLATION ACCESS:    8719106  HIT:    8701903  MISS:      17203  HIT %:    99.8027  MISS %:   0.197302   MPKI: 0.34406
ITLB PREFETCH  REQUESTED:          0  ISSUED:          0  USEFUL:          0  USELESS:          0
ITLB USEFUL LOAD PREFETCHES:          0 PREFETCH ISSUED TO LOWER LEVEL:          0  ACCURACY: -nan
ITLB TIMELY PREFETCHES:          0 LATE PREFETCHES: 0 DROPPED PREFETCHES: 0
ITLB PREFETCHES SAME FILL-ORIGIN LEVEL: 0 DIFFERENT FILL-ORIGIN LEVEL: 0
ITLB AVERAGE MISS LATENCY: 12.0024 cycles
ITLB RQ	ACCESS:    9808881	FORWARD:          0	MERGED:    1082158	TO_CACHE:    8726723

DTLB TOTAL     ACCESS:   14655790  HIT:   13698282  MISS:     957508  HIT %:    93.4667  MISS %:    6.53331   MPKI: 19.1502
DTLB LOAD TRANSLATION ACCESS:   14655790  HIT:   13698282  MISS:     957508  HIT %:    93.4667  MISS %:    6.53331   MPKI: 19.1502
DTLB PREFETCH  REQUESTED:          0  ISSUED:          0  USEFUL:          0  USELESS:          0
DTLB USEFUL LOAD PREFETCHES:          0 PREFETCH ISSUED TO LOWER LEVEL:          0  ACCURACY: -nan
DTLB TIMELY PREFETCHES:          0 LATE PREFETCHES: 0 DROPPED PREFETCHES: 0
DTLB PREFETCHES SAME FILL-ORIGIN LEVEL: 0 DIFFERENT FILL-ORIGIN LEVEL: 0
DTLB AVERAGE MISS LATENCY: 19.249 cycles
DTLB RQ	ACCESS:   17829490	FORWARD:          0	MERGED:    3128916	TO_CACHE:   14700574

STLB TOTAL     ACCESS:    4224469  HIT:    3897308  MISS:     327161  HIT %:    92.2556  MISS %:    7.74443   MPKI: 6.54322
STLB LOAD TRANSLATION ACCESS:     974711  HIT:     847534  MISS:     127177  HIT %:    86.9523  MISS %:    13.0477   MPKI: 2.54354
STLB TRANSLATION FROM L1D PREFETCHER ACCESS:    3249758  HIT:    3049774  MISS:     199984  HIT %:    93.8462  MISS %:    6.15381   MPKI: 3.99968
STLB PREFETCH  REQUESTED:          0  ISSUED:          0  USEFUL:     144929  USELESS:      55008
STLB USEFUL LOAD PREFETCHES:     144929 PREFETCH ISSUED TO LOWER LEVEL:          0  ACCURACY: inf
STLB TIMELY PREFETCHES:     144929 LATE PREFETCHES: 655 DROPPED PREFETCHES: 0
STLB PREFETCHES SAME FILL-ORIGIN LEVEL: 0 DIFFERENT FILL-ORIGIN LEVEL: 0
STLB AVERAGE MISS LATENCY: 105.206 cycles
STLB RQ	ACCESS:    4828569	FORWARD:          0	MERGED:     601830	TO_CACHE:    4226739

STLB Hit, L1D data hit: 0
STLB Hit, L2C data hit: 0
STLB Hit, LLC data hit: 0
STLB Hit, LLC data miss: 0
STLB STLB hints to L2: 0
L1D TOTAL     ACCESS:   21182305  HIT:   19260083  MISS:    1922222  HIT %:    90.9253  MISS %:    9.07466   MPKI: 38.4444
L1D LOAD      ACCESS:    9477891  HIT:    8722780  MISS:     755111  HIT %:    92.0329  MISS %:    7.96708   MPKI: 15.1022
L1D RFO       ACCESS:    7900379  HIT:    7750766  MISS:     149613  HIT %:    98.1063  MISS %:    1.89374   MPKI: 2.99226
L1D PREFETCH  ACCESS:    3804035  HIT:    2786537  MISS:    1017498  HIT %:    73.2521  MISS %:    26.7479   MPKI: 20.35
AGUS PREFETCH L1 MISS: 0
L1D PREFETCH  REQUESTED:    8019051  ISSUED:    7708306  USEFUL:     311637  USELESS:     705930
L1D USEFUL LOAD PREFETCHES:     311637 PREFETCH ISSUED TO LOWER LEVEL:    1033796  ACCURACY: 30.1449
L1D TIMELY PREFETCHES:     311637 LATE PREFETCHES: 15205 DROPPED PREFETCHES: 0
L1D PREFETCHES SAME FILL-ORIGIN LEVEL: 1033796 DIFFERENT FILL-ORIGIN LEVEL: 0
L1D AVERAGE MISS LATENCY: 155.243 cycles
L1D RQ	ACCESS:   14043123	FORWARD:          0	MERGED:    4039445	TO_CACHE:    9562022
L1D WQ	ACCESS:    8476021	FORWARD:     442227	MERGED:     208553	TO_CACHE:    8267468
L1D PQ	ACCESS:    3854448	FORWARD:          0	MERGED:         19	TO_CACHE:    3853858

L1D UNIQUE REGIONS ACCESSED: 0
L1D REGIONS CONFLICTS: 0
L1D Cross Page Prefetch Requests: 3517899
L1D Same Page Prefetch Requests: 3735029
L1D ROI Sum of L1D PQ occupancy: 111516690
L1D PREFETCHES PUSHED FROM L2C: 0
L1I TOTAL     ACCESS:    9808584  HIT:    9807043  MISS:       1541  HIT %:    99.9843  MISS %:  0.0157107   MPKI: 0.03082
L1I LOAD      ACCESS:    9808584  HIT:    9807043  MISS:       1541  HIT %:    99.9843  MISS %:  0.0157107   MPKI: 0.03082
L1I PREFETCH  REQUESTED:          0  ISSUED:          0  USEFUL:          0  USELESS:          0
L1I USEFUL LOAD PREFETCHES:          0 PREFETCH ISSUED TO LOWER LEVEL:          0  ACCURACY: -nan
L1I TIMELY PREFETCHES:          0 LATE PREFETCHES: 0 DROPPED PREFETCHES: 0
L1I PREFETCHES SAME FILL-ORIGIN LEVEL: 0 DIFFERENT FILL-ORIGIN LEVEL: 0
L1I AVERAGE MISS LATENCY: 161.533 cycles
L1I RQ	ACCESS:   14766843	FORWARD:          0	MERGED:    4957962	TO_CACHE:    9808881

BTB TOTAL     ACCESS:   10008119  HIT:    9487971  MISS:     520148  HIT %:    94.8027  MISS %:    5.19726   MPKI: 10.403
BTB BRANCH_DIRECT_JUMP	ACCESS:     964405  HIT:     964243  MISS:        162
BTB BRANCH_INDIRECT	ACCESS:     140341  HIT:     116325  MISS:      24016
BTB BRANCH_CONDITIONAL	ACCESS:    5906166  HIT:    5905777  MISS:        389
BTB BRANCH_DIRECT_CALL	ACCESS:    1294152  HIT:    1293861  MISS:        291
BTB BRANCH_INDIRECT_CALL	ACCESS:     204449  HIT:     203146  MISS:       1303
BTB BRANCH_RETURN	ACCESS:    1498606  HIT:    1004619  MISS:     493987
BTB BRANCH_OTHER ACCESS:          0  HIT:          0  MISS:          0

L2C TOTAL     ACCESS:    2793921  HIT:    1123030  MISS:    1670891  HIT %:    40.1955  MISS %:    59.8045   MPKI: 33.4178
L2C LOAD      ACCESS:     741424  HIT:     137089  MISS:     604335  HIT %:      18.49  MISS %:      81.51   MPKI: 12.0867
L2C DATA LOAD MPKI: 12.0595
L2C INSTRUCTION LOAD MPKI: 0.02718
L2C RFO       ACCESS:     148519  HIT:      14061  MISS:     134458  HIT %:    9.46748  MISS %:    90.5325   MPKI: 2.68916
L2C PREFETCH  ACCESS:    1033766  HIT:     242666  MISS:     791100  HIT %:     23.474  MISS %:     76.526   MPKI: 15.822
AGUS PREFETCH L1 MISS: 0
L2C DATA PREFETCH MPKI: 15.822
L2C INSTRUCTION PREFETCH MPKI: 0
L2C WRITEBACK ACCESS:     505619  HIT:     503516  MISS:       2103  HIT %:    99.5841  MISS %:   0.415926   MPKI: 0.04206
L2C LOAD TRANSLATION ACCESS:     139646  HIT:      89796  MISS:      49850  HIT %:    64.3026  MISS %:    35.6974   MPKI: 0.997
L2C TRANSLATION FROM L1D PREFETCHER ACCESS:     224947  HIT:     135902  MISS:      89045  HIT %:    60.4151  MISS %:    39.5849   MPKI: 1.7809
L2C PREFETCH  REQUESTED:          0  ISSUED:          0  USEFUL:      90306  USELESS:     789871
L2C USEFUL LOAD PREFETCHES:      90306 PREFETCH ISSUED TO LOWER LEVEL:     791100  ACCURACY: 11.4152
L2C TIMELY PREFETCHES:      90306 LATE PREFETCHES: 0 DROPPED PREFETCHES: 0
L2C PREFETCHES SAME FILL-ORIGIN LEVEL: 0 DIFFERENT FILL-ORIGIN LEVEL: 0
L2C AVERAGE MISS LATENCY: 168.792 cycles
L2C RQ	ACCESS:    1254560	FORWARD:          0	MERGED:          0	TO_CACHE:    1254536
L2C WQ	ACCESS:     505619	FORWARD:         54	MERGED:          0	TO_CACHE:     505619
L2C PQ	ACCESS:    1033796	FORWARD:          0	MERGED:          0	TO_CACHE:    1033766

L2C Instructions Evicting Data 1271
L2C Translations Evicting Data 126831
L2C Data Evicting Data 1399910
L2C Instructions Evicting Instructions 7
L2C Translations Evicting Instructions 126
L2C Data Evicting Instructions 1226
L2C Instructions Evicting Translations 81
L2C Translations Evicting Translations 11938
L2C Data Evicting Translations 127398
L2C Dense regions hint from L2: 0
PSCL5 TOTAL     ACCESS:     327161  HIT:     327161  MISS:          0  HIT %:        100  MISS %:          0   MPKI: 0
PSCL5 LOAD TRANSLATION ACCESS:     126522  HIT:     126522  MISS:          0  HIT %:        100  MISS %:          0   MPKI: 0
PSCL5 TRANSLATION FROM L1D PREFETCHER ACCESS:     200639  HIT:     200639  MISS:          0  HIT %:        100  MISS %:          0   MPKI: 0
PSCL5 PREFETCH  REQUESTED:          0  ISSUED:          0  USEFUL:          0  USELESS:          0
PSCL5 USEFUL LOAD PREFETCHES:          0 PREFETCH ISSUED TO LOWER LEVEL:          0  ACCURACY: -nan
PSCL5 TIMELY PREFETCHES:          0 LATE PREFETCHES: 0 DROPPED PREFETCHES: 0
PSCL5 PREFETCHES SAME FILL-ORIGIN LEVEL: 0 DIFFERENT FILL-ORIGIN LEVEL: 0

PSCL4 TOTAL     ACCESS:     327161  HIT:     327161  MISS:          0  HIT %:        100  MISS %:          0   MPKI: 0
PSCL4 LOAD TRANSLATION ACCESS:     126522  HIT:     126522  MISS:          0  HIT %:        100  MISS %:          0   MPKI: 0
PSCL4 TRANSLATION FROM L1D PREFETCHER ACCESS:     200639  HIT:     200639  MISS:          0  HIT %:        100  MISS %:          0   MPKI: 0
PSCL4 PREFETCH  REQUESTED:          0  ISSUED:          0  USEFUL:          0  USELESS:          0
PSCL4 USEFUL LOAD PREFETCHES:          0 PREFETCH ISSUED TO LOWER LEVEL:          0  ACCURACY: -nan
PSCL4 TIMELY PREFETCHES:          0 LATE PREFETCHES: 0 DROPPED PREFETCHES: 0
PSCL4 PREFETCHES SAME FILL-ORIGIN LEVEL: 0 DIFFERENT FILL-ORIGIN LEVEL: 0

PSCL3 TOTAL     ACCESS:     327161  HIT:     327161  MISS:          0  HIT %:        100  MISS %:          0   MPKI: 0
PSCL3 LOAD TRANSLATION ACCESS:     126522  HIT:     126522  MISS:          0  HIT %:        100  MISS %:          0   MPKI: 0
PSCL3 TRANSLATION FROM L1D PREFETCHER ACCESS:     200639  HIT:     200639  MISS:          0  HIT %:        100  MISS %:          0   MPKI: 0
PSCL3 PREFETCH  REQUESTED:          0  ISSUED:          0  USEFUL:          0  USELESS:          0
PSCL3 USEFUL LOAD PREFETCHES:          0 PREFETCH ISSUED TO LOWER LEVEL:          0  ACCURACY: -nan
PSCL3 TIMELY PREFETCHES:          0 LATE PREFETCHES: 0 DROPPED PREFETCHES: 0
PSCL3 PREFETCHES SAME FILL-ORIGIN LEVEL: 0 DIFFERENT FILL-ORIGIN LEVEL: 0

PSCL2 TOTAL     ACCESS:     327161  HIT:     289728  MISS:      37433  HIT %:    88.5582  MISS %:    11.4418   MPKI: 0.74866
PSCL2 LOAD TRANSLATION ACCESS:     150830  HIT:     113397  MISS:      37433  HIT %:     75.182  MISS %:     24.818   MPKI: 0.74866
PSCL2 TRANSLATION FROM L1D PREFETCHER ACCESS:     176331  HIT:     176331  MISS:          0  HIT %:        100  MISS %:          0   MPKI: 0
PSCL2 PREFETCH  REQUESTED:          0  ISSUED:          0  USEFUL:          0  USELESS:          0
PSCL2 USEFUL LOAD PREFETCHES:          0 PREFETCH ISSUED TO LOWER LEVEL:          0  ACCURACY: -nan
PSCL2 TIMELY PREFETCHES:          0 LATE PREFETCHES: 0 DROPPED PREFETCHES: 0
PSCL2 PREFETCHES SAME FILL-ORIGIN LEVEL: 0 DIFFERENT FILL-ORIGIN LEVEL: 0

LLC TOTAL     ACCESS:    2115994  HIT:     815048  MISS:    1300946  HIT %:    38.5184  MISS %:    61.4816   MPKI: 26.0189
LLC LOAD      ACCESS:     604335  HIT:     100940  MISS:     503395  HIT %:    16.7027  MISS %:    83.2973   MPKI: 10.0679
LLC RFO       ACCESS:     134458  HIT:      18518  MISS:     115940  HIT %:    13.7723  MISS %:    86.2277   MPKI: 2.3188
LLC PREFETCH  ACCESS:     791100  HIT:     156048  MISS:     635052  HIT %:    19.7254  MISS %:    80.2746   MPKI: 12.701
AGUS PREFETCH L1 MISS: 0
LLC WRITEBACK ACCESS:     447206  HIT:     445655  MISS:       1551  HIT %:    99.6532  MISS %:    0.34682   MPKI: 0.03102
LLC LOAD TRANSLATION ACCESS:      49850  HIT:      36574  MISS:      13276  HIT %:    73.3681  MISS %:    26.6319   MPKI: 0.26552
LLC TRANSLATION FROM L1D PREFETCHER ACCESS:      89045  HIT:      57313  MISS:      31732  HIT %:    64.3641  MISS %:    35.6359   MPKI: 0.63464
LLC PREFETCH  REQUESTED:          0  ISSUED:          0  USEFUL:      46136  USELESS:     622017
LLC USEFUL LOAD PREFETCHES:      46136 PREFETCH ISSUED TO LOWER LEVEL:     635052  ACCURACY: 7.26492
LLC TIMELY PREFETCHES:      46136 LATE PREFETCHES: 0 DROPPED PREFETCHES: 0
LLC PREFETCHES SAME FILL-ORIGIN LEVEL: 0 DIFFERENT FILL-ORIGIN LEVEL: 0
LLC AVERAGE MISS LATENCY: 178.255 cycles
LLC RQ	ACCESS:     877688	FORWARD:          0	MERGED:          0	TO_CACHE:     877688
LLC WQ	ACCESS:     447206	FORWARD:          0	MERGED:          0	TO_CACHE:     447206
LLC PQ	ACCESS:     791100	FORWARD:          0	MERGED:          0	TO_CACHE:     791100

LLC Dense regions hint to LLC: 0

RAW hits: 832309
Loads Generated: 14875432
Loads sent to L1D: 14043123
Stores Generated: 8476008
Stores sent to L1D: 8476021
Major fault: 0 Minor fault: 33441
Allocated PAGES: 33441

stream: 
stream:times selected: 4336290
stream:pref_reqs: 4237887
stream:pref_reqs_filtered_out: 1130053
stream:pref_filled: 712127
stream:pref_useful: 110704
stream:pref_late: 12835
stream:misses: 117648
stream:misses_by_poll: 0

CS: 
CS:times selected: 56894
CS:pref_reqs: 57238
CS:pref_reqs_filtered_out: 20855
CS:pref_filled: 17295
CS:pref_useful: 1810
CS:pref_late: 180
CS:misses: 1082
CS:misses_by_poll: 1

CPLX: 
CPLX:times selected: 4295464
CPLX:pref_reqs: 560942
CPLX:pref_reqs_filtered_out: 186305
CPLX:pref_filled: 216527
CPLX:pref_useful: 6945
CPLX:pref_late: 1006
CPLX:misses: 363594
CPLX:misses_by_poll: 120

ISB: 
ISB: pref operate called18155571
ISB: second time ip7694342
ISB: cache miss7694342
ISB: structural addr exists5952188
ISB: access_TU4434402
ISB: non zero stride4336293
ISB: end_c4311124
ISB:total access:7195061
ISB:times selected:5952188
ISB:canary counter:5952188
ISB:pref_reqs: 7914898
ISB:pref_reqs_filtered_out: 3514165
ISB:pref_filled: 911286
ISB:pref_useful: 429831
ISB:pref_late: 8034
ISB:misses: 28074
ISB:misses_by_poll: 1547
ISB:Stream end: 5507593
ISB:No Prediction: 1242873 17.274
ISB:No translation: 882007131 12258.5
ISB:Predictions: 4022519 55.9067

NL_L1: 
NL:times selected: 18595
NL:pref_reqs: 18595
NL:pref_reqs_filtered_out: 4276
NL:pref_filled: 4843
NL:pref_useful: 576
NL:pref_late: 85
NL:misses: 2684
NL:misses_by_poll: 0

total selections: 14659431
total_filled: 1017498
total_useful: 311637
total_late: 23609
total_polluted: 1668
total_misses_after_warmup: 839243
conflicts: 4579205

test: 0

DRAM Statistics
 CHANNEL 0
 RQ ROW_BUFFER_HIT:     116213  ROW_BUFFER_MISS:    1183148
 DBUS_CONGESTED:        435
 WQ ROW_BUFFER_HIT:     110451  ROW_BUFFER_MISS:     272317  FULL:          0

 AVG_CONGESTED_CYCLE: 4
 All warmup complete: 2
Channel 0 Bank busy for read cycles: 0
Channel 0 Bank busy for write cycles: 0
Channel 0
Rank 0
0banks busy for read cycles: 52648648
0banks busy for write cycles: 119254
1banks busy for read cycles: 52869055
1banks busy for write cycles: 17927029
2banks busy for read cycles: 26436293
2banks busy for write cycles: 9629306
3banks busy for read cycles: 12194875
3banks busy for write cycles: 5474986
4banks busy for read cycles: 5547032
4banks busy for write cycles: 3157650
5banks busy for read cycles: 2398375
5banks busy for write cycles: 1810485
6banks busy for read cycles: 839885
6banks busy for write cycles: 955185
7banks busy for read cycles: 213860
7banks busy for write cycles: 489188
8banks busy for read cycles: 30900
8banks busy for write cycles: 290163

CPU 0 Branch Prediction Accuracy: 94.0755% MPKI: 14.2353 Average ROB Occupancy at Mispredict: 26.0752
Branch types
NOT_BRANCH: 37985796 75.9716%
BRANCH_DIRECT_JUMP: 964405 1.92881%
BRANCH_INDIRECT: 140341 0.280682%
BRANCH_CONDITIONAL: 7911981 15.824%
BRANCH_DIRECT_CALL: 1294152 2.5883%
BRANCH_INDIRECT_CALL: 204449 0.408898%
BRANCH_RETURN: 1498606 2.99721%
BRANCH_OTHER: 0 0%

DRAM PAGES: 1048576
Allocated PAGES: 33441
