
*** ChampSim Multicore Out-of-Order Simulator ***

Warmup Instructions: 50000000
Simulation Instructions: 50000000
Number of CPUs: 1
LLC sets: 2048
LLC ways: 16
Off-chip DRAM Size: 4096 MB Channels: 1 Width: 64-bit Data Rate: 6400 MT/s
CPU 0 runs traces/SPEC-CPU2017/471.omnetpp-188B.champsimtrace.xz
.xz
CPU 0 Bimodal branch predictor
BTB has LRU replacement policy
ITLB has LRU replacement policy
DTLB has LRU replacement policy
STLB has LRU replacement policy
L1I has LRU replacement policy
L1D has LRU replacement policy
L2C has LRU replacement policy
LLC has LRU replacement policy
Heartbeat CPU 0 instructions: 10000001 cycles: 3269665 heartbeat IPC: 3.05842 cumulative IPC: 3.05842 (Simulation time: 0 hr 3 min 30 sec) 
Heartbeat CPU 0 instructions: 20000000 cycles: 6498305 heartbeat IPC: 3.09728 cumulative IPC: 3.07773 (Simulation time: 0 hr 6 min 52 sec) 
Heartbeat CPU 0 instructions: 30000000 cycles: 9749319 heartbeat IPC: 3.07596 cumulative IPC: 3.07714 (Simulation time: 0 hr 10 min 21 sec) 
Heartbeat CPU 0 instructions: 40000000 cycles: 12989266 heartbeat IPC: 3.08647 cumulative IPC: 3.07947 (Simulation time: 0 hr 13 min 46 sec) 
Heartbeat CPU 0 instructions: 50000003 cycles: 16222248 heartbeat IPC: 3.09312 cumulative IPC: 3.08219 (Simulation time: 0 hr 17 min 13 sec) 

Warmup complete CPU 0 instructions: 50000003 cycles: 16222248 (Simulation time: 0 hr 17 min 13 sec) 

Heartbeat CPU 0 instructions: 60000000 cycles: 56694115 heartbeat IPC: 0.247085 cumulative IPC: 0.247085 (Simulation time: 0 hr 18 min 17 sec) 
Heartbeat CPU 0 instructions: 70000001 cycles: 95911447 heartbeat IPC: 0.254989 cumulative IPC: 0.250975 (Simulation time: 0 hr 19 min 20 sec) 
Heartbeat CPU 0 instructions: 80000000 cycles: 137240175 heartbeat IPC: 0.241962 cumulative IPC: 0.247897 (Simulation time: 0 hr 20 min 27 sec) 
Heartbeat CPU 0 instructions: 90000003 cycles: 178558918 heartbeat IPC: 0.242021 cumulative IPC: 0.246402 (Simulation time: 0 hr 21 min 32 sec) 
Heartbeat CPU 0 instructions: 100000000 cycles: 219944213 heartbeat IPC: 0.241632 cumulative IPC: 0.245433 (Simulation time: 0 hr 22 min 37 sec) 
Finished CPU 0 instructions: 50000000 cycles: 203721974 cumulative IPC: 0.245433 (Simulation time: 0 hr 22 min 37 sec) 

ChampSim completed all CPUs

Region of Interest Statistics

CPU 0 cumulative IPC: 0.245433 instructions: 50000000 cycles: 203721974
ITLB TOTAL     ACCESS:    8723745  HIT:    8706542  MISS:      17203  HIT %:    99.8028  MISS %:   0.197197   MPKI: 0.34406
ITLB LOAD TRANSLATION ACCESS:    8723745  HIT:    8706542  MISS:      17203  HIT %:    99.8028  MISS %:   0.197197   MPKI: 0.34406
ITLB PREFETCH  REQUESTED:          0  ISSUED:          0  USEFUL:          0  USELESS:          0
ITLB USEFUL LOAD PREFETCHES:          0 PREFETCH ISSUED TO LOWER LEVEL:          0  ACCURACY: -nan
ITLB TIMELY PREFETCHES:          0 LATE PREFETCHES: 0 DROPPED PREFETCHES: 0
ITLB PREFETCHES SAME FILL-ORIGIN LEVEL: 0 DIFFERENT FILL-ORIGIN LEVEL: 0
ITLB AVERAGE MISS LATENCY: 11.6837 cycles
ITLB RQ	ACCESS:    9815332	FORWARD:          0	MERGED:    1083971	TO_CACHE:    8731361

DTLB TOTAL     ACCESS:   14655675  HIT:   13698221  MISS:     957454  HIT %:     93.467  MISS %:    6.53299   MPKI: 19.1491
DTLB LOAD TRANSLATION ACCESS:   14655675  HIT:   13698221  MISS:     957454  HIT %:     93.467  MISS %:    6.53299   MPKI: 19.1491
DTLB PREFETCH  REQUESTED:          0  ISSUED:          0  USEFUL:          0  USELESS:          0
DTLB USEFUL LOAD PREFETCHES:          0 PREFETCH ISSUED TO LOWER LEVEL:          0  ACCURACY: -nan
DTLB TIMELY PREFETCHES:          0 LATE PREFETCHES: 0 DROPPED PREFETCHES: 0
DTLB PREFETCHES SAME FILL-ORIGIN LEVEL: 0 DIFFERENT FILL-ORIGIN LEVEL: 0
DTLB AVERAGE MISS LATENCY: 21.5772 cycles
DTLB RQ	ACCESS:   17833564	FORWARD:          0	MERGED:    3131738	TO_CACHE:   14701826

STLB TOTAL     ACCESS:    3182205  HIT:    2881769  MISS:     300436  HIT %:    90.5589  MISS %:    9.44113   MPKI: 6.00872
STLB LOAD TRANSLATION ACCESS:     974657  HIT:     806038  MISS:     168619  HIT %:    82.6997  MISS %:    17.3003   MPKI: 3.37238
STLB TRANSLATION FROM L1D PREFETCHER ACCESS:    2207548  HIT:    2075731  MISS:     131817  HIT %:    94.0288  MISS %:     5.9712   MPKI: 2.63634
STLB PREFETCH  REQUESTED:          0  ISSUED:          0  USEFUL:      93942  USELESS:      37840
STLB USEFUL LOAD PREFETCHES:      93942 PREFETCH ISSUED TO LOWER LEVEL:          0  ACCURACY: inf
STLB TIMELY PREFETCHES:      93942 LATE PREFETCHES: 662 DROPPED PREFETCHES: 0
STLB PREFETCHES SAME FILL-ORIGIN LEVEL: 0 DIFFERENT FILL-ORIGIN LEVEL: 0
STLB AVERAGE MISS LATENCY: 81.1931 cycles
STLB RQ	ACCESS:    3645068	FORWARD:          0	MERGED:     460813	TO_CACHE:    3184255

STLB Hit, L1D data hit: 0
STLB Hit, L2C data hit: 0
STLB Hit, LLC data hit: 0
STLB Hit, LLC data miss: 0
STLB STLB hints to L2: 0
L1D TOTAL     ACCESS:   19915551  HIT:   18104351  MISS:    1811200  HIT %:    90.9056  MISS %:     9.0944   MPKI: 36.224
L1D LOAD      ACCESS:    9460690  HIT:    8618563  MISS:     842127  HIT %:    91.0987  MISS %:    8.90133   MPKI: 16.8425
L1D RFO       ACCESS:    7857657  HIT:    7693909  MISS:     163748  HIT %:    97.9161  MISS %:    2.08393   MPKI: 3.27496
L1D PREFETCH  ACCESS:    2597204  HIT:    1791879  MISS:     805325  HIT %:    68.9926  MISS %:    31.0074   MPKI: 16.1065
AGUS PREFETCH L1 MISS: 0
L1D PREFETCH  REQUESTED:    5429866  ISSUED:    5359941  USEFUL:     201491  USELESS:     603869
L1D USEFUL LOAD PREFETCHES:     201491 PREFETCH ISSUED TO LOWER LEVEL:     827597  ACCURACY: 24.3465
L1D TIMELY PREFETCHES:     201491 LATE PREFETCHES: 21407 DROPPED PREFETCHES: 0
L1D PREFETCHES SAME FILL-ORIGIN LEVEL: 827597 DIFFERENT FILL-ORIGIN LEVEL: 0
L1D AVERAGE MISS LATENCY: 157.565 cycles
L1D RQ	ACCESS:   14039285	FORWARD:          0	MERGED:    4043896	TO_CACHE:    9558933
L1D WQ	ACCESS:    8476021	FORWARD:     436627	MERGED:     201390	TO_CACHE:    8274631
L1D PQ	ACCESS:    2689530	FORWARD:          0	MERGED:      18948	TO_CACHE:    2670411

L1D UNIQUE REGIONS ACCESSED: 0
L1D REGIONS CONFLICTS: 0
L1D Cross Page Prefetch Requests: 1426537
L1D Same Page Prefetch Requests: 3770097
L1D ROI Sum of L1D PQ occupancy: 64105640
L1D PREFETCHES PUSHED FROM L2C: 0
L1I TOTAL     ACCESS:    9815034  HIT:    9813493  MISS:       1541  HIT %:    99.9843  MISS %:  0.0157004   MPKI: 0.03082
L1I LOAD      ACCESS:    9815034  HIT:    9813493  MISS:       1541  HIT %:    99.9843  MISS %:  0.0157004   MPKI: 0.03082
L1I PREFETCH  REQUESTED:          0  ISSUED:          0  USEFUL:          0  USELESS:          0
L1I USEFUL LOAD PREFETCHES:          0 PREFETCH ISSUED TO LOWER LEVEL:          0  ACCURACY: -nan
L1I TIMELY PREFETCHES:          0 LATE PREFETCHES: 0 DROPPED PREFETCHES: 0
L1I PREFETCHES SAME FILL-ORIGIN LEVEL: 0 DIFFERENT FILL-ORIGIN LEVEL: 0
L1I AVERAGE MISS LATENCY: 158.837 cycles
L1I RQ	ACCESS:   14780209	FORWARD:          0	MERGED:    4964877	TO_CACHE:    9815332

BTB TOTAL     ACCESS:   10008119  HIT:    9487971  MISS:     520148  HIT %:    94.8027  MISS %:    5.19726   MPKI: 10.403
BTB BRANCH_DIRECT_JUMP	ACCESS:     964405  HIT:     964243  MISS:        162
BTB BRANCH_INDIRECT	ACCESS:     140341  HIT:     116325  MISS:      24016
BTB BRANCH_CONDITIONAL	ACCESS:    5906166  HIT:    5905777  MISS:        389
BTB BRANCH_DIRECT_CALL	ACCESS:    1294152  HIT:    1293861  MISS:        291
BTB BRANCH_INDIRECT_CALL	ACCESS:     204449  HIT:     203146  MISS:       1303
BTB BRANCH_RETURN	ACCESS:    1498606  HIT:    1004619  MISS:     493987
BTB BRANCH_OTHER ACCESS:          0  HIT:          0  MISS:          0

L2C TOTAL     ACCESS:    2662431  HIT:    1016522  MISS:    1645909  HIT %:    38.1802  MISS %:    61.8198   MPKI: 32.9182
L2C LOAD      ACCESS:     822232  HIT:     126532  MISS:     695700  HIT %:    15.3888  MISS %:    84.6112   MPKI: 13.914
L2C DATA LOAD MPKI: 13.8871
L2C INSTRUCTION LOAD MPKI: 0.0269
L2C RFO       ACCESS:     162883  HIT:      11409  MISS:     151474  HIT %:    7.00441  MISS %:    92.9956   MPKI: 3.02948
L2C PREFETCH  ACCESS:     827570  HIT:     167046  MISS:     660524  HIT %:    20.1851  MISS %:    79.8149   MPKI: 13.2105
AGUS PREFETCH L1 MISS: 0
L2C DATA PREFETCH MPKI: 13.2105
L2C INSTRUCTION PREFETCH MPKI: 0
L2C WRITEBACK ACCESS:     502261  HIT:     500214  MISS:       2047  HIT %:    99.5924  MISS %:   0.407557   MPKI: 0.04094
L2C LOAD TRANSLATION ACCESS:     188065  HIT:     121408  MISS:      66657  HIT %:    64.5564  MISS %:    35.4436   MPKI: 1.33314
L2C TRANSLATION FROM L1D PREFETCHER ACCESS:     159420  HIT:      89913  MISS:      69507  HIT %:    56.4001  MISS %:    43.5999   MPKI: 1.39014
L2C PREFETCH  REQUESTED:          0  ISSUED:          0  USEFUL:      55123  USELESS:     674437
L2C USEFUL LOAD PREFETCHES:      55123 PREFETCH ISSUED TO LOWER LEVEL:     660525  ACCURACY: 8.34533
L2C TIMELY PREFETCHES:      55123 LATE PREFETCHES: 0 DROPPED PREFETCHES: 0
L2C PREFETCHES SAME FILL-ORIGIN LEVEL: 0 DIFFERENT FILL-ORIGIN LEVEL: 0
L2C AVERAGE MISS LATENCY: 164.616 cycles
L2C RQ	ACCESS:    1332631	FORWARD:          0	MERGED:          0	TO_CACHE:    1332601
L2C WQ	ACCESS:     502261	FORWARD:         56	MERGED:          0	TO_CACHE:     502261
L2C PQ	ACCESS:     827597	FORWARD:          0	MERGED:          0	TO_CACHE:     827571

L2C Instructions Evicting Data 1262
L2C Translations Evicting Data 124419
L2C Data Evicting Data 1380183
L2C Instructions Evicting Instructions 9
L2C Translations Evicting Instructions 116
L2C Data Evicting Instructions 1220
L2C Instructions Evicting Translations 74
L2C Translations Evicting Translations 11629
L2C Data Evicting Translations 124950
L2C Dense regions hint from L2: 0
PSCL5 TOTAL     ACCESS:     300437  HIT:     300437  MISS:          0  HIT %:        100  MISS %:          0   MPKI: 0
PSCL5 LOAD TRANSLATION ACCESS:     167957  HIT:     167957  MISS:          0  HIT %:        100  MISS %:          0   MPKI: 0
PSCL5 TRANSLATION FROM L1D PREFETCHER ACCESS:     132480  HIT:     132480  MISS:          0  HIT %:        100  MISS %:          0   MPKI: 0
PSCL5 PREFETCH  REQUESTED:          0  ISSUED:          0  USEFUL:          0  USELESS:          0
PSCL5 USEFUL LOAD PREFETCHES:          0 PREFETCH ISSUED TO LOWER LEVEL:          0  ACCURACY: -nan
PSCL5 TIMELY PREFETCHES:          0 LATE PREFETCHES: 0 DROPPED PREFETCHES: 0
PSCL5 PREFETCHES SAME FILL-ORIGIN LEVEL: 0 DIFFERENT FILL-ORIGIN LEVEL: 0

PSCL4 TOTAL     ACCESS:     300437  HIT:     300437  MISS:          0  HIT %:        100  MISS %:          0   MPKI: 0
PSCL4 LOAD TRANSLATION ACCESS:     167957  HIT:     167957  MISS:          0  HIT %:        100  MISS %:          0   MPKI: 0
PSCL4 TRANSLATION FROM L1D PREFETCHER ACCESS:     132480  HIT:     132480  MISS:          0  HIT %:        100  MISS %:          0   MPKI: 0
PSCL4 PREFETCH  REQUESTED:          0  ISSUED:          0  USEFUL:          0  USELESS:          0
PSCL4 USEFUL LOAD PREFETCHES:          0 PREFETCH ISSUED TO LOWER LEVEL:          0  ACCURACY: -nan
PSCL4 TIMELY PREFETCHES:          0 LATE PREFETCHES: 0 DROPPED PREFETCHES: 0
PSCL4 PREFETCHES SAME FILL-ORIGIN LEVEL: 0 DIFFERENT FILL-ORIGIN LEVEL: 0

PSCL3 TOTAL     ACCESS:     300437  HIT:     300437  MISS:          0  HIT %:        100  MISS %:          0   MPKI: 0
PSCL3 LOAD TRANSLATION ACCESS:     167957  HIT:     167957  MISS:          0  HIT %:        100  MISS %:          0   MPKI: 0
PSCL3 TRANSLATION FROM L1D PREFETCHER ACCESS:     132480  HIT:     132480  MISS:          0  HIT %:        100  MISS %:          0   MPKI: 0
PSCL3 PREFETCH  REQUESTED:          0  ISSUED:          0  USEFUL:          0  USELESS:          0
PSCL3 USEFUL LOAD PREFETCHES:          0 PREFETCH ISSUED TO LOWER LEVEL:          0  ACCURACY: -nan
PSCL3 TIMELY PREFETCHES:          0 LATE PREFETCHES: 0 DROPPED PREFETCHES: 0
PSCL3 PREFETCHES SAME FILL-ORIGIN LEVEL: 0 DIFFERENT FILL-ORIGIN LEVEL: 0

PSCL2 TOTAL     ACCESS:     300437  HIT:     253387  MISS:      47050  HIT %:    84.3395  MISS %:    15.6605   MPKI: 0.941
PSCL2 LOAD TRANSLATION ACCESS:     194898  HIT:     147848  MISS:      47050  HIT %:    75.8592  MISS %:    24.1408   MPKI: 0.941
PSCL2 TRANSLATION FROM L1D PREFETCHER ACCESS:     105539  HIT:     105539  MISS:          0  HIT %:        100  MISS %:          0   MPKI: 0
PSCL2 PREFETCH  REQUESTED:          0  ISSUED:          0  USEFUL:          0  USELESS:          0
PSCL2 USEFUL LOAD PREFETCHES:          0 PREFETCH ISSUED TO LOWER LEVEL:          0  ACCURACY: -nan
PSCL2 TIMELY PREFETCHES:          0 LATE PREFETCHES: 0 DROPPED PREFETCHES: 0
PSCL2 PREFETCHES SAME FILL-ORIGIN LEVEL: 0 DIFFERENT FILL-ORIGIN LEVEL: 0

LLC TOTAL     ACCESS:    2091012  HIT:     789479  MISS:    1301533  HIT %:    37.7558  MISS %:    62.2442   MPKI: 26.0307
LLC LOAD      ACCESS:     695699  HIT:     113406  MISS:     582293  HIT %:     16.301  MISS %:     83.699   MPKI: 11.6459
LLC RFO       ACCESS:     151474  HIT:      20347  MISS:     131127  HIT %:    13.4327  MISS %:    86.5673   MPKI: 2.62254
LLC PREFETCH  ACCESS:     660523  HIT:     120458  MISS:     540065  HIT %:    18.2368  MISS %:    81.7632   MPKI: 10.8013
AGUS PREFETCH L1 MISS: 0
LLC WRITEBACK ACCESS:     447152  HIT:     445673  MISS:       1479  HIT %:    99.6692  MISS %:    0.33076   MPKI: 0.02958
LLC LOAD TRANSLATION ACCESS:      66657  HIT:      47911  MISS:      18746  HIT %:    71.8769  MISS %:    28.1231   MPKI: 0.37492
LLC TRANSLATION FROM L1D PREFETCHER ACCESS:      69507  HIT:      41684  MISS:      27823  HIT %:    59.9709  MISS %:    40.0291   MPKI: 0.55646
LLC PREFETCH  REQUESTED:          0  ISSUED:          0  USEFUL:      36557  USELESS:     532036
LLC USEFUL LOAD PREFETCHES:      36557 PREFETCH ISSUED TO LOWER LEVEL:     540066  ACCURACY: 6.76899
LLC TIMELY PREFETCHES:      36557 LATE PREFETCHES: 0 DROPPED PREFETCHES: 0
LLC PREFETCHES SAME FILL-ORIGIN LEVEL: 0 DIFFERENT FILL-ORIGIN LEVEL: 0
LLC AVERAGE MISS LATENCY: 170.23 cycles
LLC RQ	ACCESS:     983338	FORWARD:          0	MERGED:          0	TO_CACHE:     983337
LLC WQ	ACCESS:     447152	FORWARD:          2	MERGED:          0	TO_CACHE:     447152
LLC PQ	ACCESS:     660525	FORWARD:          0	MERGED:          0	TO_CACHE:     660524

LLC Dense regions hint to LLC: 0

RAW hits: 836150
Loads Generated: 14875435
Loads sent to L1D: 14039285
Stores Generated: 8476009
Stores sent to L1D: 8476021
Major fault: 0 Minor fault: 33441
Allocated PAGES: 33441

stream: 
stream:times selected: 4301194
stream:pref_filled: 775472
stream:pref_useful: 142329
stream:pref_late: 16381
stream:misses: 20922
stream:misses_by_poll: 0

CS: 
CS:times selected: 56651
CS:pref_filled: 21207
CS:pref_useful: 4395
CS:pref_late: 322
CS:misses: 592
CS:misses_by_poll: 2

CPLX: 
CPLX:times selected: 4260681
CPLX:pref_filled: 235016
CPLX:pref_useful: 10422
CPLX:pref_late: 1329
CPLX:misses: 66365
CPLX:misses_by_poll: 132

ISB: 
ISB:times selected:4027232
ISB:pref_filled: 458434
ISB:pref_useful: 199435
ISB:pref_late: 13718
ISB:misses: 493774
ISB:misses_by_poll: 839

NL_L1: 
NL:times selected: 17353
NL:pref_filled: 4817
NL:pref_useful: 684
NL:pref_late: 104
NL:misses: 3239
NL:misses_by_poll: 0

total selections: 12663111
total_filled: 805325
total_useful: 201491
total_late: 33555
total_polluted: 973
total_misses_after_warmup: 940370
conflicts: 4579858

test: 2671487

DRAM Statistics
 CHANNEL 0
 RQ ROW_BUFFER_HIT:     142428  ROW_BUFFER_MISS:    1157604
 DBUS_CONGESTED:        653
 WQ ROW_BUFFER_HIT:     126473  ROW_BUFFER_MISS:     257234  FULL:          0

 AVG_CONGESTED_CYCLE: 4
 All warmup complete: 2
Channel 0 Bank busy for read cycles: 0
Channel 0 Bank busy for write cycles: 0
Channel 0
Rank 0
0banks busy for read cycles: 55920423
0banks busy for write cycles: 127055
1banks busy for read cycles: 57656182
1banks busy for write cycles: 19884503
2banks busy for read cycles: 28013945
2banks busy for write cycles: 10767523
3banks busy for read cycles: 11939991
3banks busy for write cycles: 5906656
4banks busy for read cycles: 4632816
4banks busy for write cycles: 3302896
5banks busy for read cycles: 1736434
5banks busy for write cycles: 1732346
6banks busy for read cycles: 506486
6banks busy for write cycles: 856101
7banks busy for read cycles: 119314
7banks busy for write cycles: 410045
8banks busy for read cycles: 21739
8banks busy for write cycles: 187520

CPU 0 Branch Prediction Accuracy: 94.0755% MPKI: 14.2353 Average ROB Occupancy at Mispredict: 26.2252
Branch types
NOT_BRANCH: 37985796 75.9716%
BRANCH_DIRECT_JUMP: 964405 1.92881%
BRANCH_INDIRECT: 140341 0.280682%
BRANCH_CONDITIONAL: 7911981 15.824%
BRANCH_DIRECT_CALL: 1294152 2.5883%
BRANCH_INDIRECT_CALL: 204449 0.408898%
BRANCH_RETURN: 1498606 2.99721%
BRANCH_OTHER: 0 0%

DRAM PAGES: 1048576
Allocated PAGES: 33441
