
*** ChampSim Multicore Out-of-Order Simulator ***

Warmup Instructions: 50000000
Simulation Instructions: 50000000
Number of CPUs: 1
LLC sets: 2048
LLC ways: 16
Off-chip DRAM Size: 4096 MB Channels: 1 Width: 64-bit Data Rate: 6400 MT/s
CPU 0 runs traces/SPEC-CPU2017/471.omnetpp-188B.champsimtrace.xz
.xz
CPU 0 Bimodal branch predictor
BTB has LRU replacement policy
ITLB has LRU replacement policy
DTLB has LRU replacement policy
STLB has LRU replacement policy
L1I has LRU replacement policy
L1D has LRU replacement policy
L2C has LRU replacement policy
LLC has LRU replacement policy
Heartbeat CPU 0 instructions: 10000001 cycles: 3266510 heartbeat IPC: 3.06137 cumulative IPC: 3.06137 (Simulation time: 0 hr 6 min 24 sec) 
Heartbeat CPU 0 instructions: 20000000 cycles: 6491195 heartbeat IPC: 3.10108 cumulative IPC: 3.0811 (Simulation time: 0 hr 12 min 35 sec) 
Heartbeat CPU 0 instructions: 30000000 cycles: 9737679 heartbeat IPC: 3.08026 cumulative IPC: 3.08082 (Simulation time: 0 hr 19 min 25 sec) 
Heartbeat CPU 0 instructions: 40000000 cycles: 12972697 heartbeat IPC: 3.09117 cumulative IPC: 3.0834 (Simulation time: 0 hr 26 min 8 sec) 
Heartbeat CPU 0 instructions: 50000003 cycles: 16198792 heartbeat IPC: 3.09972 cumulative IPC: 3.08665 (Simulation time: 0 hr 33 min 1 sec) 

Warmup complete CPU 0 instructions: 50000003 cycles: 16198792 (Simulation time: 0 hr 33 min 1 sec) 

Heartbeat CPU 0 instructions: 60000000 cycles: 56132382 heartbeat IPC: 0.250416 cumulative IPC: 0.250416 (Simulation time: 0 hr 36 min 0 sec) 
Heartbeat CPU 0 instructions: 70000001 cycles: 94959281 heartbeat IPC: 0.257553 cumulative IPC: 0.253934 (Simulation time: 0 hr 38 min 46 sec) 
Heartbeat CPU 0 instructions: 80000000 cycles: 135524872 heartbeat IPC: 0.246514 cumulative IPC: 0.251412 (Simulation time: 0 hr 41 min 39 sec) 
Heartbeat CPU 0 instructions: 90000003 cycles: 176464054 heartbeat IPC: 0.244265 cumulative IPC: 0.249586 (Simulation time: 0 hr 44 min 24 sec) 
Heartbeat CPU 0 instructions: 100000000 cycles: 217300784 heartbeat IPC: 0.244878 cumulative IPC: 0.24863 (Simulation time: 0 hr 47 min 19 sec) 
Finished CPU 0 instructions: 50000000 cycles: 201102001 cumulative IPC: 0.24863 (Simulation time: 0 hr 47 min 19 sec) 

ChampSim completed all CPUs

Region of Interest Statistics

CPU 0 cumulative IPC: 0.24863 instructions: 50000000 cycles: 201102001
ITLB TOTAL     ACCESS:    8719598  HIT:    8702395  MISS:      17203  HIT %:    99.8027  MISS %:   0.197291   MPKI: 0.34406
ITLB LOAD TRANSLATION ACCESS:    8719598  HIT:    8702395  MISS:      17203  HIT %:    99.8027  MISS %:   0.197291   MPKI: 0.34406
ITLB PREFETCH  REQUESTED:          0  ISSUED:          0  USEFUL:          0  USELESS:          0
ITLB USEFUL LOAD PREFETCHES:          0 PREFETCH ISSUED TO LOWER LEVEL:          0  ACCURACY: -nan
ITLB TIMELY PREFETCHES:          0 LATE PREFETCHES: 0 DROPPED PREFETCHES: 0
ITLB PREFETCHES SAME FILL-ORIGIN LEVEL: 0 DIFFERENT FILL-ORIGIN LEVEL: 0
ITLB AVERAGE MISS LATENCY: 11.7325 cycles
ITLB RQ	ACCESS:    9809493	FORWARD:          0	MERGED:    1082280	TO_CACHE:    8727213

DTLB TOTAL     ACCESS:   14678281  HIT:   13720782  MISS:     957499  HIT %:    93.4768  MISS %:    6.52324   MPKI: 19.15
DTLB LOAD TRANSLATION ACCESS:   14678281  HIT:   13720782  MISS:     957499  HIT %:    93.4768  MISS %:    6.52324   MPKI: 19.15
DTLB PREFETCH  REQUESTED:          0  ISSUED:          0  USEFUL:          0  USELESS:          0
DTLB USEFUL LOAD PREFETCHES:          0 PREFETCH ISSUED TO LOWER LEVEL:          0  ACCURACY: -nan
DTLB TIMELY PREFETCHES:          0 LATE PREFETCHES: 0 DROPPED PREFETCHES: 0
DTLB PREFETCHES SAME FILL-ORIGIN LEVEL: 0 DIFFERENT FILL-ORIGIN LEVEL: 0
DTLB AVERAGE MISS LATENCY: 21.2397 cycles
DTLB RQ	ACCESS:   17857638	FORWARD:          0	MERGED:    3133937	TO_CACHE:   14723701

STLB TOTAL     ACCESS:    2764446  HIT:    2490415  MISS:     274031  HIT %:    90.0873  MISS %:    9.91269   MPKI: 5.48062
STLB LOAD TRANSLATION ACCESS:     974702  HIT:     823285  MISS:     151417  HIT %:    84.4653  MISS %:    15.5347   MPKI: 3.02834
STLB TRANSLATION FROM L1D PREFETCHER ACCESS:    1789744  HIT:    1667130  MISS:     122614  HIT %:    93.1491  MISS %:    6.85092   MPKI: 2.45228
STLB PREFETCH  REQUESTED:          0  ISSUED:          0  USEFUL:      83463  USELESS:      39124
STLB USEFUL LOAD PREFETCHES:      83463 PREFETCH ISSUED TO LOWER LEVEL:          0  ACCURACY: inf
STLB TIMELY PREFETCHES:      83463 LATE PREFETCHES: 622 DROPPED PREFETCHES: 0
STLB PREFETCHES SAME FILL-ORIGIN LEVEL: 0 DIFFERENT FILL-ORIGIN LEVEL: 0
STLB AVERAGE MISS LATENCY: 108.089 cycles
STLB RQ	ACCESS:    3182724	FORWARD:          0	MERGED:     416107	TO_CACHE:    2766617

STLB Hit, L1D data hit: 0
STLB Hit, L2C data hit: 0
STLB Hit, LLC data hit: 0
STLB Hit, LLC data miss: 0
STLB STLB hints to L2: 0
L1D TOTAL     ACCESS:   19510513  HIT:   17695223  MISS:    1815290  HIT %:    90.6958  MISS %:    9.30416   MPKI: 36.3058
L1D LOAD      ACCESS:    9477282  HIT:    8642995  MISS:     834287  HIT %:     91.197  MISS %:    8.80302   MPKI: 16.6857
L1D RFO       ACCESS:    7878401  HIT:    7716115  MISS:     162286  HIT %:    97.9401  MISS %:    2.05988   MPKI: 3.24572
L1D PREFETCH  ACCESS:    2154830  HIT:    1336113  MISS:     818717  HIT %:    62.0055  MISS %:    37.9945   MPKI: 16.3743
AGUS PREFETCH L1 MISS: 0
L1D PREFETCH  REQUESTED:    4452807  ISSUED:    4416164  USEFUL:     212172  USELESS:     606611
L1D USEFUL LOAD PREFETCHES:     212172 PREFETCH ISSUED TO LOWER LEVEL:     836000  ACCURACY: 25.3794
L1D TIMELY PREFETCHES:     212172 LATE PREFETCHES: 16249 DROPPED PREFETCHES: 0
L1D PREFETCHES SAME FILL-ORIGIN LEVEL: 836000 DIFFERENT FILL-ORIGIN LEVEL: 0
L1D AVERAGE MISS LATENCY: 158.016 cycles
L1D RQ	ACCESS:   14064149	FORWARD:          0	MERGED:    4056370	TO_CACHE:    9564832
L1D WQ	ACCESS:    8476021	FORWARD:     443067	MERGED:     183215	TO_CACHE:    8292806
L1D PQ	ACCESS:    2208142	FORWARD:          0	MERGED:          0	TO_CACHE:    2208022

L1D UNIQUE REGIONS ACCESSED: 0
L1D REGIONS CONFLICTS: 0
L1D Cross Page Prefetch Requests: 534936
L1D Same Page Prefetch Requests: 3680510
L1D ROI Sum of L1D PQ occupancy: 66743326
L1D PREFETCHES PUSHED FROM L2C: 0
L1I TOTAL     ACCESS:    9809194  HIT:    9807653  MISS:       1541  HIT %:    99.9843  MISS %:  0.0157098   MPKI: 0.03082
L1I LOAD      ACCESS:    9809194  HIT:    9807653  MISS:       1541  HIT %:    99.9843  MISS %:  0.0157098   MPKI: 0.03082
L1I PREFETCH  REQUESTED:          0  ISSUED:          0  USEFUL:          0  USELESS:          0
L1I USEFUL LOAD PREFETCHES:          0 PREFETCH ISSUED TO LOWER LEVEL:          0  ACCURACY: -nan
L1I TIMELY PREFETCHES:          0 LATE PREFETCHES: 0 DROPPED PREFETCHES: 0
L1I PREFETCHES SAME FILL-ORIGIN LEVEL: 0 DIFFERENT FILL-ORIGIN LEVEL: 0
L1I AVERAGE MISS LATENCY: 158.168 cycles
L1I RQ	ACCESS:   14767954	FORWARD:          0	MERGED:    4958461	TO_CACHE:    9809493

BTB TOTAL     ACCESS:   10008119  HIT:    9487971  MISS:     520148  HIT %:    94.8027  MISS %:    5.19726   MPKI: 10.403
BTB BRANCH_DIRECT_JUMP	ACCESS:     964405  HIT:     964243  MISS:        162
BTB BRANCH_INDIRECT	ACCESS:     140341  HIT:     116325  MISS:      24016
BTB BRANCH_CONDITIONAL	ACCESS:    5906166  HIT:    5905777  MISS:        389
BTB BRANCH_DIRECT_CALL	ACCESS:    1294152  HIT:    1293861  MISS:        291
BTB BRANCH_INDIRECT_CALL	ACCESS:     204449  HIT:     203146  MISS:       1303
BTB BRANCH_RETURN	ACCESS:    1498606  HIT:    1004619  MISS:     493987
BTB BRANCH_OTHER ACCESS:          0  HIT:          0  MISS:          0

L2C TOTAL     ACCESS:    2616232  HIT:    1000987  MISS:    1615245  HIT %:    38.2606  MISS %:    61.7394   MPKI: 32.3049
L2C LOAD      ACCESS:     819547  HIT:     132702  MISS:     686845  HIT %:    16.1921  MISS %:    83.8079   MPKI: 13.7369
L2C DATA LOAD MPKI: 13.7099
L2C INSTRUCTION LOAD MPKI: 0.02698
L2C RFO       ACCESS:     161252  HIT:      12442  MISS:     148810  HIT %:    7.71587  MISS %:    92.2841   MPKI: 2.9762
L2C PREFETCH  ACCESS:     835985  HIT:     176999  MISS:     658986  HIT %:    21.1725  MISS %:    78.8275   MPKI: 13.1797
AGUS PREFETCH L1 MISS: 0
L2C DATA PREFETCH MPKI: 13.1797
L2C INSTRUCTION PREFETCH MPKI: 0
L2C WRITEBACK ACCESS:     502925  HIT:     500980  MISS:       1945  HIT %:    99.6133  MISS %:   0.386738   MPKI: 0.0389
L2C LOAD TRANSLATION ACCESS:     162505  HIT:     101020  MISS:      61485  HIT %:    62.1642  MISS %:    37.8358   MPKI: 1.2297
L2C TRANSLATION FROM L1D PREFETCHER ACCESS:     134018  HIT:      76844  MISS:      57174  HIT %:    57.3386  MISS %:    42.6614   MPKI: 1.14348
L2C PREFETCH  REQUESTED:          0  ISSUED:          0  USEFUL:      65569  USELESS:     651034
L2C USEFUL LOAD PREFETCHES:      65569 PREFETCH ISSUED TO LOWER LEVEL:     658986  ACCURACY: 9.94998
L2C TIMELY PREFETCHES:      65569 LATE PREFETCHES: 0 DROPPED PREFETCHES: 0
L2C PREFETCHES SAME FILL-ORIGIN LEVEL: 0 DIFFERENT FILL-ORIGIN LEVEL: 0
L2C AVERAGE MISS LATENCY: 167.673 cycles
L2C RQ	ACCESS:    1277354	FORWARD:          0	MERGED:          0	TO_CACHE:    1277322
L2C WQ	ACCESS:     502925	FORWARD:         47	MERGED:          0	TO_CACHE:     502925
L2C PQ	ACCESS:     836000	FORWARD:          0	MERGED:          0	TO_CACHE:     835985

L2C Instructions Evicting Data 1272
L2C Translations Evicting Data 109529
L2C Data Evicting Data 1381848
L2C Instructions Evicting Instructions 7
L2C Translations Evicting Instructions 79
L2C Data Evicting Instructions 1264
L2C Instructions Evicting Translations 70
L2C Translations Evicting Translations 9051
L2C Data Evicting Translations 110180
L2C Dense regions hint from L2: 0
PSCL5 TOTAL     ACCESS:     274031  HIT:     274031  MISS:          0  HIT %:        100  MISS %:          0   MPKI: 0
PSCL5 LOAD TRANSLATION ACCESS:     150795  HIT:     150795  MISS:          0  HIT %:        100  MISS %:          0   MPKI: 0
PSCL5 TRANSLATION FROM L1D PREFETCHER ACCESS:     123236  HIT:     123236  MISS:          0  HIT %:        100  MISS %:          0   MPKI: 0
PSCL5 PREFETCH  REQUESTED:          0  ISSUED:          0  USEFUL:          0  USELESS:          0
PSCL5 USEFUL LOAD PREFETCHES:          0 PREFETCH ISSUED TO LOWER LEVEL:          0  ACCURACY: -nan
PSCL5 TIMELY PREFETCHES:          0 LATE PREFETCHES: 0 DROPPED PREFETCHES: 0
PSCL5 PREFETCHES SAME FILL-ORIGIN LEVEL: 0 DIFFERENT FILL-ORIGIN LEVEL: 0

PSCL4 TOTAL     ACCESS:     274031  HIT:     274031  MISS:          0  HIT %:        100  MISS %:          0   MPKI: 0
PSCL4 LOAD TRANSLATION ACCESS:     150795  HIT:     150795  MISS:          0  HIT %:        100  MISS %:          0   MPKI: 0
PSCL4 TRANSLATION FROM L1D PREFETCHER ACCESS:     123236  HIT:     123236  MISS:          0  HIT %:        100  MISS %:          0   MPKI: 0
PSCL4 PREFETCH  REQUESTED:          0  ISSUED:          0  USEFUL:          0  USELESS:          0
PSCL4 USEFUL LOAD PREFETCHES:          0 PREFETCH ISSUED TO LOWER LEVEL:          0  ACCURACY: -nan
PSCL4 TIMELY PREFETCHES:          0 LATE PREFETCHES: 0 DROPPED PREFETCHES: 0
PSCL4 PREFETCHES SAME FILL-ORIGIN LEVEL: 0 DIFFERENT FILL-ORIGIN LEVEL: 0

PSCL3 TOTAL     ACCESS:     274031  HIT:     274031  MISS:          0  HIT %:        100  MISS %:          0   MPKI: 0
PSCL3 LOAD TRANSLATION ACCESS:     150795  HIT:     150795  MISS:          0  HIT %:        100  MISS %:          0   MPKI: 0
PSCL3 TRANSLATION FROM L1D PREFETCHER ACCESS:     123236  HIT:     123236  MISS:          0  HIT %:        100  MISS %:          0   MPKI: 0
PSCL3 PREFETCH  REQUESTED:          0  ISSUED:          0  USEFUL:          0  USELESS:          0
PSCL3 USEFUL LOAD PREFETCHES:          0 PREFETCH ISSUED TO LOWER LEVEL:          0  ACCURACY: -nan
PSCL3 TIMELY PREFETCHES:          0 LATE PREFETCHES: 0 DROPPED PREFETCHES: 0
PSCL3 PREFETCHES SAME FILL-ORIGIN LEVEL: 0 DIFFERENT FILL-ORIGIN LEVEL: 0

PSCL2 TOTAL     ACCESS:     274031  HIT:     251538  MISS:      22493  HIT %:    91.7918  MISS %:     8.2082   MPKI: 0.44986
PSCL2 LOAD TRANSLATION ACCESS:     161577  HIT:     139084  MISS:      22493  HIT %:    86.0791  MISS %:    13.9209   MPKI: 0.44986
PSCL2 TRANSLATION FROM L1D PREFETCHER ACCESS:     112454  HIT:     112454  MISS:          0  HIT %:        100  MISS %:          0   MPKI: 0
PSCL2 PREFETCH  REQUESTED:          0  ISSUED:          0  USEFUL:          0  USELESS:          0
PSCL2 USEFUL LOAD PREFETCHES:          0 PREFETCH ISSUED TO LOWER LEVEL:          0  ACCURACY: -nan
PSCL2 TIMELY PREFETCHES:          0 LATE PREFETCHES: 0 DROPPED PREFETCHES: 0
PSCL2 PREFETCHES SAME FILL-ORIGIN LEVEL: 0 DIFFERENT FILL-ORIGIN LEVEL: 0

LLC TOTAL     ACCESS:    2059801  HIT:     774135  MISS:    1285666  HIT %:     37.583  MISS %:     62.417   MPKI: 25.7133
LLC LOAD      ACCESS:     686844  HIT:     113963  MISS:     572881  HIT %:    16.5923  MISS %:    83.4077   MPKI: 11.4576
LLC RFO       ACCESS:     148810  HIT:      19466  MISS:     129344  HIT %:    13.0811  MISS %:    86.9189   MPKI: 2.58688
LLC PREFETCH  ACCESS:     658985  HIT:     118768  MISS:     540217  HIT %:    18.0229  MISS %:    81.9771   MPKI: 10.8043
AGUS PREFETCH L1 MISS: 0
LLC WRITEBACK ACCESS:     446503  HIT:     444969  MISS:       1534  HIT %:    99.6564  MISS %:   0.343559   MPKI: 0.03068
LLC LOAD TRANSLATION ACCESS:      61485  HIT:      42548  MISS:      18937  HIT %:    69.2006  MISS %:    30.7994   MPKI: 0.37874
LLC TRANSLATION FROM L1D PREFETCHER ACCESS:      57174  HIT:      34421  MISS:      22753  HIT %:    60.2039  MISS %:    39.7961   MPKI: 0.45506
LLC PREFETCH  REQUESTED:          0  ISSUED:          0  USEFUL:      35766  USELESS:     529373
LLC USEFUL LOAD PREFETCHES:      35766 PREFETCH ISSUED TO LOWER LEVEL:     540217  ACCURACY: 6.62067
LLC TIMELY PREFETCHES:      35766 LATE PREFETCHES: 0 DROPPED PREFETCHES: 0
LLC PREFETCHES SAME FILL-ORIGIN LEVEL: 0 DIFFERENT FILL-ORIGIN LEVEL: 0
LLC AVERAGE MISS LATENCY: 172.956 cycles
LLC RQ	ACCESS:     954314	FORWARD:          0	MERGED:          0	TO_CACHE:     954313
LLC WQ	ACCESS:     446503	FORWARD:          2	MERGED:          0	TO_CACHE:     446503
LLC PQ	ACCESS:     658986	FORWARD:          0	MERGED:          0	TO_CACHE:     658985

LLC Dense regions hint to LLC: 0

RAW hits: 811284
Loads Generated: 14875433
Loads sent to L1D: 14064149
Stores Generated: 8476008
Stores sent to L1D: 8476021
Major fault: 0 Minor fault: 33441
Allocated PAGES: 33441

stream: 
stream:times selected: 4484297
stream:pref_reqs: 4384181
stream:pref_reqs_filtered_out: 1186664
stream:pref_filled: 760296
stream:pref_useful: 139297
stream:pref_late: 15217
stream:misses: 129594
stream:misses_by_poll: 0

CS: 
CS:times selected: 60059
CS:pref_reqs: 60400
CS:pref_reqs_filtered_out: 18916
CS:pref_filled: 22230
CS:pref_useful: 3922
CS:pref_late: 310
CS:misses: 1716
CS:misses_by_poll: 1

CPLX: 
CPLX:times selected: 4442923
CPLX:pref_reqs: 667648
CPLX:pref_reqs_filtered_out: 215177
CPLX:pref_filled: 254539
CPLX:pref_useful: 9890
CPLX:pref_late: 1395
CPLX:misses: 406023
CPLX:misses_by_poll: 139

ISB: 
ISB: pref operate called18150066
ISB: second time ip7687305
ISB: cache miss683063
ISB: structural addr exists470780
ISB: access_TU4564730
ISB: non zero stride4484300
ISB: end_c4449115
ISB:total access:666377
ISB:times selected:470780
ISB:canary counter:470780
ISB:pref_reqs: 626617
ISB:pref_reqs_filtered_out: 41168
ISB:pref_filled: 466349
ISB:pref_useful: 226820
ISB:pref_late: 7003
ISB:misses: 5633
ISB:misses_by_poll: 355
ISB:Stream end: 432830
ISB:No Prediction: 195597 29.3523
ISB:No translation: 1770457415 265684
ISB:Predictions: 553961 83.1303

NL_L1: 
NL:times selected: 27057
NL:pref_reqs: 27057
NL:pref_reqs_filtered_out: 5238
NL:pref_filled: 6186
NL:pref_useful: 992
NL:pref_late: 134
NL:misses: 3550
NL:misses_by_poll: 0

total selections: 9485116
total_filled: 818717
total_useful: 212172
total_late: 25601
total_polluted: 495
total_misses_after_warmup: 921838
conflicts: 4581284

test: 0

DRAM Statistics
 CHANNEL 0
 RQ ROW_BUFFER_HIT:     142846  ROW_BUFFER_MISS:    1141268
 DBUS_CONGESTED:        594
 WQ ROW_BUFFER_HIT:     117914  ROW_BUFFER_MISS:     264349  FULL:          0

 AVG_CONGESTED_CYCLE: 4
 All warmup complete: 2
Channel 0 Bank busy for read cycles: 0
Channel 0 Bank busy for write cycles: 0
Channel 0
Rank 0
0banks busy for read cycles: 58035737
0banks busy for write cycles: 125302
1banks busy for read cycles: 55565927
1banks busy for write cycles: 19401233
2banks busy for read cycles: 26844761
2banks busy for write cycles: 10098977
3banks busy for read cycles: 11109243
3banks busy for write cycles: 5536365
4banks busy for read cycles: 4843311
4banks busy for write cycles: 3112286
5banks busy for read cycles: 2100718
5banks busy for write cycles: 1734900
6banks busy for read cycles: 726710
6banks busy for write cycles: 916185
7banks busy for read cycles: 186443
7banks busy for write cycles: 469955
8banks busy for read cycles: 26542
8banks busy for write cycles: 267407

CPU 0 Branch Prediction Accuracy: 94.0755% MPKI: 14.2353 Average ROB Occupancy at Mispredict: 26.1903
Branch types
NOT_BRANCH: 37985796 75.9716%
BRANCH_DIRECT_JUMP: 964405 1.92881%
BRANCH_INDIRECT: 140341 0.280682%
BRANCH_CONDITIONAL: 7911981 15.824%
BRANCH_DIRECT_CALL: 1294152 2.5883%
BRANCH_INDIRECT_CALL: 204449 0.408898%
BRANCH_RETURN: 1498606 2.99721%
BRANCH_OTHER: 0 0%

DRAM PAGES: 1048576
Allocated PAGES: 33441
