
*** ChampSim Multicore Out-of-Order Simulator ***

Warmup Instructions: 50000000
Simulation Instructions: 50000000
Number of CPUs: 1
LLC sets: 2048
LLC ways: 16
Off-chip DRAM Size: 4096 MB Channels: 1 Width: 64-bit Data Rate: 6400 MT/s
CPU 0 runs traces/SPEC-CPU2017/471.omnetpp-188B.champsimtrace.xz
.xz
CPU 0 Bimodal branch predictor
BTB has LRU replacement policy
ITLB has LRU replacement policy
DTLB has LRU replacement policy
STLB has LRU replacement policy
L1I has LRU replacement policy
L1D has LRU replacement policy
L2C has LRU replacement policy
LLC has LRU replacement policy
Heartbeat CPU 0 instructions: 10000001 cycles: 3269912 heartbeat IPC: 3.05819 cumulative IPC: 3.05819 (Simulation time: 0 hr 3 min 29 sec) 
Heartbeat CPU 0 instructions: 20000000 cycles: 6498481 heartbeat IPC: 3.09735 cumulative IPC: 3.07764 (Simulation time: 0 hr 6 min 51 sec) 
Heartbeat CPU 0 instructions: 30000000 cycles: 9749496 heartbeat IPC: 3.07596 cumulative IPC: 3.07708 (Simulation time: 0 hr 10 min 21 sec) 
Heartbeat CPU 0 instructions: 40000000 cycles: 12989665 heartbeat IPC: 3.08626 cumulative IPC: 3.07937 (Simulation time: 0 hr 13 min 46 sec) 
Heartbeat CPU 0 instructions: 50000003 cycles: 16222982 heartbeat IPC: 3.0928 cumulative IPC: 3.08205 (Simulation time: 0 hr 17 min 11 sec) 

Warmup complete CPU 0 instructions: 50000003 cycles: 16222982 (Simulation time: 0 hr 17 min 11 sec) 

Heartbeat CPU 0 instructions: 60000000 cycles: 56708961 heartbeat IPC: 0.246999 cumulative IPC: 0.246999 (Simulation time: 0 hr 18 min 15 sec) 
Heartbeat CPU 0 instructions: 70000001 cycles: 95909855 heartbeat IPC: 0.255096 cumulative IPC: 0.250982 (Simulation time: 0 hr 19 min 19 sec) 
Heartbeat CPU 0 instructions: 80000000 cycles: 137229115 heartbeat IPC: 0.242018 cumulative IPC: 0.247921 (Simulation time: 0 hr 20 min 25 sec) 
Heartbeat CPU 0 instructions: 90000003 cycles: 178579435 heartbeat IPC: 0.241836 cumulative IPC: 0.246371 (Simulation time: 0 hr 21 min 30 sec) 
Heartbeat CPU 0 instructions: 100000000 cycles: 219952146 heartbeat IPC: 0.241705 cumulative IPC: 0.245424 (Simulation time: 0 hr 22 min 33 sec) 
Finished CPU 0 instructions: 50000000 cycles: 203729173 cumulative IPC: 0.245424 (Simulation time: 0 hr 22 min 33 sec) 

ChampSim completed all CPUs

Region of Interest Statistics

CPU 0 cumulative IPC: 0.245424 instructions: 50000000 cycles: 203729173
ITLB TOTAL     ACCESS:    8723754  HIT:    8706551  MISS:      17203  HIT %:    99.8028  MISS %:   0.197197   MPKI: 0.34406
ITLB LOAD TRANSLATION ACCESS:    8723754  HIT:    8706551  MISS:      17203  HIT %:    99.8028  MISS %:   0.197197   MPKI: 0.34406
ITLB PREFETCH  REQUESTED:          0  ISSUED:          0  USEFUL:          0  USELESS:          0
ITLB USEFUL LOAD PREFETCHES:          0 PREFETCH ISSUED TO LOWER LEVEL:          0  ACCURACY: -nan
ITLB TIMELY PREFETCHES:          0 LATE PREFETCHES: 0 DROPPED PREFETCHES: 0
ITLB PREFETCHES SAME FILL-ORIGIN LEVEL: 0 DIFFERENT FILL-ORIGIN LEVEL: 0
ITLB AVERAGE MISS LATENCY: 11.7503 cycles
ITLB RQ	ACCESS:    9815371	FORWARD:          0	MERGED:    1083999	TO_CACHE:    8731372

DTLB TOTAL     ACCESS:   14656726  HIT:   13699232  MISS:     957494  HIT %:    93.4672  MISS %:     6.5328   MPKI: 19.1499
DTLB LOAD TRANSLATION ACCESS:   14656726  HIT:   13699232  MISS:     957494  HIT %:    93.4672  MISS %:     6.5328   MPKI: 19.1499
DTLB PREFETCH  REQUESTED:          0  ISSUED:          0  USEFUL:          0  USELESS:          0
DTLB USEFUL LOAD PREFETCHES:          0 PREFETCH ISSUED TO LOWER LEVEL:          0  ACCURACY: -nan
DTLB TIMELY PREFETCHES:          0 LATE PREFETCHES: 0 DROPPED PREFETCHES: 0
DTLB PREFETCHES SAME FILL-ORIGIN LEVEL: 0 DIFFERENT FILL-ORIGIN LEVEL: 0
DTLB AVERAGE MISS LATENCY: 21.6322 cycles
DTLB RQ	ACCESS:   17834398	FORWARD:          0	MERGED:    3131547	TO_CACHE:   14702851

STLB TOTAL     ACCESS:    3177433  HIT:    2878876  MISS:     298557  HIT %:    90.6038  MISS %:    9.39617   MPKI: 5.97114
STLB LOAD TRANSLATION ACCESS:     974697  HIT:     806142  MISS:     168555  HIT %:    82.7069  MISS %:    17.2931   MPKI: 3.3711
STLB TRANSLATION FROM L1D PREFETCHER ACCESS:    2202736  HIT:    2072734  MISS:     130002  HIT %:    94.0982  MISS %:    5.90184   MPKI: 2.60004
STLB PREFETCH  REQUESTED:          0  ISSUED:          0  USEFUL:      93000  USELESS:      36959
STLB USEFUL LOAD PREFETCHES:      93000 PREFETCH ISSUED TO LOWER LEVEL:          0  ACCURACY: inf
STLB TIMELY PREFETCHES:      93000 LATE PREFETCHES: 675 DROPPED PREFETCHES: 0
STLB PREFETCHES SAME FILL-ORIGIN LEVEL: 0 DIFFERENT FILL-ORIGIN LEVEL: 0
STLB AVERAGE MISS LATENCY: 81.2212 cycles
STLB RQ	ACCESS:    3642992	FORWARD:          0	MERGED:     463521	TO_CACHE:    3179471

STLB Hit, L1D data hit: 0
STLB Hit, L2C data hit: 0
STLB Hit, LLC data hit: 0
STLB Hit, LLC data miss: 0
STLB STLB hints to L2: 0
L1D TOTAL     ACCESS:   19915547  HIT:   18106020  MISS:    1809527  HIT %:     90.914  MISS %:      9.086   MPKI: 36.1905
L1D LOAD      ACCESS:    9460999  HIT:    8619444  MISS:     841555  HIT %:     91.105  MISS %:    8.89499   MPKI: 16.8311
L1D RFO       ACCESS:    7858907  HIT:    7695005  MISS:     163902  HIT %:    97.9144  MISS %:    2.08556   MPKI: 3.27804
L1D PREFETCH  ACCESS:    2595641  HIT:    1791571  MISS:     804070  HIT %:    69.0223  MISS %:    30.9777   MPKI: 16.0814
AGUS PREFETCH L1 MISS: 0
L1D PREFETCH  REQUESTED:    5422841  ISSUED:    5355044  USEFUL:     201731  USELESS:     602371
L1D USEFUL LOAD PREFETCHES:     201731 PREFETCH ISSUED TO LOWER LEVEL:     826219  ACCURACY: 24.4162
L1D TIMELY PREFETCHES:     201731 LATE PREFETCHES: 21300 DROPPED PREFETCHES: 0
L1D PREFETCHES SAME FILL-ORIGIN LEVEL: 826219 DIFFERENT FILL-ORIGIN LEVEL: 0
L1D AVERAGE MISS LATENCY: 157.549 cycles
L1D RQ	ACCESS:   14040014	FORWARD:          0	MERGED:    4044268	TO_CACHE:    9559144
L1D WQ	ACCESS:    8476021	FORWARD:     436773	MERGED:     200767	TO_CACHE:    8275254
L1D PQ	ACCESS:    2686749	FORWARD:          0	MERGED:      18283	TO_CACHE:    2668295

L1D UNIQUE REGIONS ACCESSED: 0
L1D REGIONS CONFLICTS: 0
L1D Cross Page Prefetch Requests: 1408316
L1D Same Page Prefetch Requests: 3776962
L1D ROI Sum of L1D PQ occupancy: 63693295
L1D PREFETCHES PUSHED FROM L2C: 0
L1I TOTAL     ACCESS:    9815070  HIT:    9813529  MISS:       1541  HIT %:    99.9843  MISS %:  0.0157003   MPKI: 0.03082
L1I LOAD      ACCESS:    9815070  HIT:    9813529  MISS:       1541  HIT %:    99.9843  MISS %:  0.0157003   MPKI: 0.03082
L1I PREFETCH  REQUESTED:          0  ISSUED:          0  USEFUL:          0  USELESS:          0
L1I USEFUL LOAD PREFETCHES:          0 PREFETCH ISSUED TO LOWER LEVEL:          0  ACCURACY: -nan
L1I TIMELY PREFETCHES:          0 LATE PREFETCHES: 0 DROPPED PREFETCHES: 0
L1I PREFETCHES SAME FILL-ORIGIN LEVEL: 0 DIFFERENT FILL-ORIGIN LEVEL: 0
L1I AVERAGE MISS LATENCY: 160.912 cycles
L1I RQ	ACCESS:   14780205	FORWARD:          0	MERGED:    4964834	TO_CACHE:    9815371

BTB TOTAL     ACCESS:   10008119  HIT:    9487971  MISS:     520148  HIT %:    94.8027  MISS %:    5.19726   MPKI: 10.403
BTB BRANCH_DIRECT_JUMP	ACCESS:     964405  HIT:     964243  MISS:        162
BTB BRANCH_INDIRECT	ACCESS:     140341  HIT:     116325  MISS:      24016
BTB BRANCH_CONDITIONAL	ACCESS:    5906166  HIT:    5905777  MISS:        389
BTB BRANCH_DIRECT_CALL	ACCESS:    1294152  HIT:    1293861  MISS:        291
BTB BRANCH_INDIRECT_CALL	ACCESS:     204449  HIT:     203146  MISS:       1303
BTB BRANCH_RETURN	ACCESS:    1498606  HIT:    1004619  MISS:     493987
BTB BRANCH_OTHER ACCESS:          0  HIT:          0  MISS:          0

L2C TOTAL     ACCESS:    2658332  HIT:    1014873  MISS:    1643459  HIT %:    38.1771  MISS %:    61.8229   MPKI: 32.8692
L2C LOAD      ACCESS:     821766  HIT:     126157  MISS:     695609  HIT %:    15.3519  MISS %:    84.6481   MPKI: 13.9122
L2C DATA LOAD MPKI: 13.8852
L2C INSTRUCTION LOAD MPKI: 0.02694
L2C RFO       ACCESS:     163052  HIT:      11468  MISS:     151584  HIT %:    7.03334  MISS %:    92.9667   MPKI: 3.03168
L2C PREFETCH  ACCESS:     826203  HIT:     166860  MISS:     659343  HIT %:     20.196  MISS %:     79.804   MPKI: 13.1869
AGUS PREFETCH L1 MISS: 0
L2C DATA PREFETCH MPKI: 13.1869
L2C INSTRUCTION PREFETCH MPKI: 0
L2C WRITEBACK ACCESS:     502311  HIT:     500254  MISS:       2057  HIT %:    99.5905  MISS %:   0.409507   MPKI: 0.04114
L2C LOAD TRANSLATION ACCESS:     187782  HIT:     121075  MISS:      66707  HIT %:    64.4764  MISS %:    35.5236   MPKI: 1.33414
L2C TRANSLATION FROM L1D PREFETCHER ACCESS:     157218  HIT:      89059  MISS:      68159  HIT %:    56.6468  MISS %:    43.3532   MPKI: 1.36318
L2C PREFETCH  REQUESTED:          0  ISSUED:          0  USEFUL:      55004  USELESS:     671959
L2C USEFUL LOAD PREFETCHES:      55004 PREFETCH ISSUED TO LOWER LEVEL:     659344  ACCURACY: 8.34223
L2C TIMELY PREFETCHES:      55004 LATE PREFETCHES: 0 DROPPED PREFETCHES: 0
L2C PREFETCHES SAME FILL-ORIGIN LEVEL: 0 DIFFERENT FILL-ORIGIN LEVEL: 0
L2C AVERAGE MISS LATENCY: 164.653 cycles
L2C RQ	ACCESS:    1329850	FORWARD:          0	MERGED:          0	TO_CACHE:    1329818
L2C WQ	ACCESS:     502311	FORWARD:         47	MERGED:          0	TO_CACHE:     502311
L2C PQ	ACCESS:     826219	FORWARD:          0	MERGED:          0	TO_CACHE:     826204

L2C Instructions Evicting Data 1257
L2C Translations Evicting Data 123150
L2C Data Evicting Data 1380291
L2C Instructions Evicting Instructions 7
L2C Translations Evicting Instructions 86
L2C Data Evicting Instructions 1253
L2C Instructions Evicting Translations 83
L2C Translations Evicting Translations 11630
L2C Data Evicting Translations 123645
L2C Dense regions hint from L2: 0
PSCL5 TOTAL     ACCESS:     298557  HIT:     298557  MISS:          0  HIT %:        100  MISS %:          0   MPKI: 0
PSCL5 LOAD TRANSLATION ACCESS:     167880  HIT:     167880  MISS:          0  HIT %:        100  MISS %:          0   MPKI: 0
PSCL5 TRANSLATION FROM L1D PREFETCHER ACCESS:     130677  HIT:     130677  MISS:          0  HIT %:        100  MISS %:          0   MPKI: 0
PSCL5 PREFETCH  REQUESTED:          0  ISSUED:          0  USEFUL:          0  USELESS:          0
PSCL5 USEFUL LOAD PREFETCHES:          0 PREFETCH ISSUED TO LOWER LEVEL:          0  ACCURACY: -nan
PSCL5 TIMELY PREFETCHES:          0 LATE PREFETCHES: 0 DROPPED PREFETCHES: 0
PSCL5 PREFETCHES SAME FILL-ORIGIN LEVEL: 0 DIFFERENT FILL-ORIGIN LEVEL: 0

PSCL4 TOTAL     ACCESS:     298557  HIT:     298557  MISS:          0  HIT %:        100  MISS %:          0   MPKI: 0
PSCL4 LOAD TRANSLATION ACCESS:     167880  HIT:     167880  MISS:          0  HIT %:        100  MISS %:          0   MPKI: 0
PSCL4 TRANSLATION FROM L1D PREFETCHER ACCESS:     130677  HIT:     130677  MISS:          0  HIT %:        100  MISS %:          0   MPKI: 0
PSCL4 PREFETCH  REQUESTED:          0  ISSUED:          0  USEFUL:          0  USELESS:          0
PSCL4 USEFUL LOAD PREFETCHES:          0 PREFETCH ISSUED TO LOWER LEVEL:          0  ACCURACY: -nan
PSCL4 TIMELY PREFETCHES:          0 LATE PREFETCHES: 0 DROPPED PREFETCHES: 0
PSCL4 PREFETCHES SAME FILL-ORIGIN LEVEL: 0 DIFFERENT FILL-ORIGIN LEVEL: 0

PSCL3 TOTAL     ACCESS:     298557  HIT:     298557  MISS:          0  HIT %:        100  MISS %:          0   MPKI: 0
PSCL3 LOAD TRANSLATION ACCESS:     167880  HIT:     167880  MISS:          0  HIT %:        100  MISS %:          0   MPKI: 0
PSCL3 TRANSLATION FROM L1D PREFETCHER ACCESS:     130677  HIT:     130677  MISS:          0  HIT %:        100  MISS %:          0   MPKI: 0
PSCL3 PREFETCH  REQUESTED:          0  ISSUED:          0  USEFUL:          0  USELESS:          0
PSCL3 USEFUL LOAD PREFETCHES:          0 PREFETCH ISSUED TO LOWER LEVEL:          0  ACCURACY: -nan
PSCL3 TIMELY PREFETCHES:          0 LATE PREFETCHES: 0 DROPPED PREFETCHES: 0
PSCL3 PREFETCHES SAME FILL-ORIGIN LEVEL: 0 DIFFERENT FILL-ORIGIN LEVEL: 0

PSCL2 TOTAL     ACCESS:     298557  HIT:     252113  MISS:      46444  HIT %:    84.4438  MISS %:    15.5562   MPKI: 0.92888
PSCL2 LOAD TRANSLATION ACCESS:     194421  HIT:     147977  MISS:      46444  HIT %:    76.1116  MISS %:    23.8884   MPKI: 0.92888
PSCL2 TRANSLATION FROM L1D PREFETCHER ACCESS:     104136  HIT:     104136  MISS:          0  HIT %:        100  MISS %:          0   MPKI: 0
PSCL2 PREFETCH  REQUESTED:          0  ISSUED:          0  USEFUL:          0  USELESS:          0
PSCL2 USEFUL LOAD PREFETCHES:          0 PREFETCH ISSUED TO LOWER LEVEL:          0  ACCURACY: -nan
PSCL2 TIMELY PREFETCHES:          0 LATE PREFETCHES: 0 DROPPED PREFETCHES: 0
PSCL2 PREFETCHES SAME FILL-ORIGIN LEVEL: 0 DIFFERENT FILL-ORIGIN LEVEL: 0

LLC TOTAL     ACCESS:    2088695  HIT:     788682  MISS:    1300013  HIT %:    37.7596  MISS %:    62.2404   MPKI: 26.0003
LLC LOAD      ACCESS:     695607  HIT:     113819  MISS:     581788  HIT %:    16.3625  MISS %:    83.6375   MPKI: 11.6358
LLC RFO       ACCESS:     151584  HIT:      20481  MISS:     131103  HIT %:    13.5113  MISS %:    86.4887   MPKI: 2.62206
LLC PREFETCH  ACCESS:     659343  HIT:     120008  MISS:     539335  HIT %:    18.2011  MISS %:    81.7989   MPKI: 10.7867
AGUS PREFETCH L1 MISS: 0
LLC WRITEBACK ACCESS:     447295  HIT:     445851  MISS:       1444  HIT %:    99.6772  MISS %:   0.322829   MPKI: 0.02888
LLC LOAD TRANSLATION ACCESS:      66707  HIT:      47836  MISS:      18871  HIT %:    71.7106  MISS %:    28.2894   MPKI: 0.37742
LLC TRANSLATION FROM L1D PREFETCHER ACCESS:      68159  HIT:      40687  MISS:      27472  HIT %:    59.6942  MISS %:    40.3058   MPKI: 0.54944
LLC PREFETCH  REQUESTED:          0  ISSUED:          0  USEFUL:      36811  USELESS:     530743
LLC USEFUL LOAD PREFETCHES:      36811 PREFETCH ISSUED TO LOWER LEVEL:     539336  ACCURACY: 6.82524
LLC TIMELY PREFETCHES:      36811 LATE PREFETCHES: 0 DROPPED PREFETCHES: 0
LLC PREFETCHES SAME FILL-ORIGIN LEVEL: 0 DIFFERENT FILL-ORIGIN LEVEL: 0
LLC AVERAGE MISS LATENCY: 170.222 cycles
LLC RQ	ACCESS:     982059	FORWARD:          0	MERGED:          0	TO_CACHE:     982057
LLC WQ	ACCESS:     447295	FORWARD:          2	MERGED:          0	TO_CACHE:     447295
LLC PQ	ACCESS:     659344	FORWARD:          0	MERGED:          0	TO_CACHE:     659344

LLC Dense regions hint to LLC: 0

RAW hits: 835421
Loads Generated: 14875435
Loads sent to L1D: 14040014
Stores Generated: 8476009
Stores sent to L1D: 8476021
Major fault: 0 Minor fault: 33441
Allocated PAGES: 33441

stream: 
stream:times selected: 4300629
stream:pref_filled: 777419
stream:pref_useful: 142609
stream:pref_late: 16372
stream:misses: 25877
stream:misses_by_poll: 0

CS: 
CS:times selected: 56797
CS:pref_filled: 21296
CS:pref_useful: 4509
CS:pref_late: 301
CS:misses: 636
CS:misses_by_poll: 3

CPLX: 
CPLX:times selected: 4260165
CPLX:pref_filled: 235764
CPLX:pref_useful: 10541
CPLX:pref_late: 1300
CPLX:misses: 66382
CPLX:misses_by_poll: 144

ISB: 
ISB:times selected:3989405
ISB:pref_filled: 453831
ISB:pref_useful: 198870
ISB:pref_late: 13495
ISB:misses: 488448
ISB:misses_by_poll: 818

NL_L1: 
NL:times selected: 17602
NL:pref_filled: 4886
NL:pref_useful: 717
NL:pref_late: 91
NL:misses: 3317
NL:misses_by_poll: 0

total selections: 12624598
total_filled: 804070
total_useful: 201731
total_late: 33241
total_polluted: 965
total_misses_after_warmup: 939700
conflicts: 4580219

test: 2671011

DRAM Statistics
 CHANNEL 0
 RQ ROW_BUFFER_HIT:     142581  ROW_BUFFER_MISS:    1155965
 DBUS_CONGESTED:        657
 WQ ROW_BUFFER_HIT:     126091  ROW_BUFFER_MISS:     257313  FULL:          0

 AVG_CONGESTED_CYCLE: 4
 All warmup complete: 2
Channel 0 Bank busy for read cycles: 0
Channel 0 Bank busy for write cycles: 0
Channel 0
Rank 0
0banks busy for read cycles: 56044235
0banks busy for write cycles: 127179
1banks busy for read cycles: 57561360
1banks busy for write cycles: 19890455
2banks busy for read cycles: 28054036
2banks busy for write cycles: 10802680
3banks busy for read cycles: 11875625
3banks busy for write cycles: 5944878
4banks busy for read cycles: 4627993
4banks busy for write cycles: 3264768
5banks busy for read cycles: 1739108
5banks busy for write cycles: 1725688
6banks busy for read cycles: 505540
6banks busy for write cycles: 864760
7banks busy for read cycles: 114083
7banks busy for write cycles: 385008
8banks busy for read cycles: 23982
8banks busy for write cycles: 177796

CPU 0 Branch Prediction Accuracy: 94.0755% MPKI: 14.2353 Average ROB Occupancy at Mispredict: 26.227
Branch types
NOT_BRANCH: 37985796 75.9716%
BRANCH_DIRECT_JUMP: 964405 1.92881%
BRANCH_INDIRECT: 140341 0.280682%
BRANCH_CONDITIONAL: 7911981 15.824%
BRANCH_DIRECT_CALL: 1294152 2.5883%
BRANCH_INDIRECT_CALL: 204449 0.408898%
BRANCH_RETURN: 1498606 2.99721%
BRANCH_OTHER: 0 0%

DRAM PAGES: 1048576
Allocated PAGES: 33441
