
*** ChampSim Multicore Out-of-Order Simulator ***

Warmup Instructions: 50000000
Simulation Instructions: 50000000
Number of CPUs: 1
LLC sets: 2048
LLC ways: 16
Off-chip DRAM Size: 4096 MB Channels: 1 Width: 64-bit Data Rate: 6400 MT/s
CPU 0 runs traces/SPEC-CPU2017/471.omnetpp-188B.champsimtrace.xz
.xz
CPU 0 Bimodal branch predictor
BTB has LRU replacement policy
ITLB has LRU replacement policy
DTLB has LRU replacement policy
STLB has LRU replacement policy
L1I has LRU replacement policy
L1D has LRU replacement policy
L2C has LRU replacement policy
LLC has LRU replacement policy
Heartbeat CPU 0 instructions: 10000001 cycles: 3264461 heartbeat IPC: 3.06329 cumulative IPC: 3.06329 (Simulation time: 0 hr 0 min 59 sec) 
Heartbeat CPU 0 instructions: 20000000 cycles: 6487972 heartbeat IPC: 3.10221 cumulative IPC: 3.08263 (Simulation time: 0 hr 1 min 55 sec) 
Heartbeat CPU 0 instructions: 30000000 cycles: 9734497 heartbeat IPC: 3.08022 cumulative IPC: 3.08182 (Simulation time: 0 hr 2 min 54 sec) 
Heartbeat CPU 0 instructions: 40000000 cycles: 12971932 heartbeat IPC: 3.08887 cumulative IPC: 3.08358 (Simulation time: 0 hr 3 min 54 sec) 
Heartbeat CPU 0 instructions: 50000003 cycles: 16196567 heartbeat IPC: 3.10113 cumulative IPC: 3.08707 (Simulation time: 0 hr 4 min 52 sec) 

Warmup complete CPU 0 instructions: 50000003 cycles: 16196567 (Simulation time: 0 hr 4 min 52 sec) 

Heartbeat CPU 0 instructions: 60000000 cycles: 51674267 heartbeat IPC: 0.281867 cumulative IPC: 0.281867 (Simulation time: 0 hr 5 min 55 sec) 
Heartbeat CPU 0 instructions: 70000001 cycles: 85980047 heartbeat IPC: 0.291496 cumulative IPC: 0.286601 (Simulation time: 0 hr 6 min 59 sec) 
Heartbeat CPU 0 instructions: 80000000 cycles: 120620747 heartbeat IPC: 0.288678 cumulative IPC: 0.28729 (Simulation time: 0 hr 8 min 6 sec) 
Heartbeat CPU 0 instructions: 90000003 cycles: 155153386 heartbeat IPC: 0.289581 cumulative IPC: 0.287859 (Simulation time: 0 hr 9 min 12 sec) 
Heartbeat CPU 0 instructions: 100000000 cycles: 190023483 heartbeat IPC: 0.286779 cumulative IPC: 0.287642 (Simulation time: 0 hr 10 min 20 sec) 
Finished CPU 0 instructions: 50000000 cycles: 173826925 cumulative IPC: 0.287642 (Simulation time: 0 hr 10 min 20 sec) 

ChampSim completed all CPUs

Region of Interest Statistics

CPU 0 cumulative IPC: 0.287642 instructions: 50000000 cycles: 173826925
ITLB TOTAL     ACCESS:    8716197  HIT:    8698994  MISS:      17203  HIT %:    99.8026  MISS %:   0.197368   MPKI: 0.34406
ITLB LOAD TRANSLATION ACCESS:    8716197  HIT:    8698994  MISS:      17203  HIT %:    99.8026  MISS %:   0.197368   MPKI: 0.34406
ITLB PREFETCH  REQUESTED:          0  ISSUED:          0  USEFUL:          0  USELESS:          0
ITLB USEFUL LOAD PREFETCHES:          0 PREFETCH ISSUED TO LOWER LEVEL:          0  ACCURACY: -nan
ITLB TIMELY PREFETCHES:          0 LATE PREFETCHES: 0 DROPPED PREFETCHES: 0
ITLB PREFETCHES SAME FILL-ORIGIN LEVEL: 0 DIFFERENT FILL-ORIGIN LEVEL: 0
ITLB AVERAGE MISS LATENCY: 11.9879 cycles
ITLB RQ	ACCESS:    9804817	FORWARD:          0	MERGED:    1081004	TO_CACHE:    8723813

DTLB TOTAL     ACCESS:   14691126  HIT:   13733416  MISS:     957710  HIT %:     93.481  MISS %:    6.51897   MPKI: 19.1542
DTLB LOAD TRANSLATION ACCESS:   14691126  HIT:   13733416  MISS:     957710  HIT %:     93.481  MISS %:    6.51897   MPKI: 19.1542
DTLB PREFETCH  REQUESTED:          0  ISSUED:          0  USEFUL:          0  USELESS:          0
DTLB USEFUL LOAD PREFETCHES:          0 PREFETCH ISSUED TO LOWER LEVEL:          0  ACCURACY: -nan
DTLB TIMELY PREFETCHES:          0 LATE PREFETCHES: 0 DROPPED PREFETCHES: 0
DTLB PREFETCHES SAME FILL-ORIGIN LEVEL: 0 DIFFERENT FILL-ORIGIN LEVEL: 0
DTLB AVERAGE MISS LATENCY: 16.9771 cycles
DTLB RQ	ACCESS:   17851919	FORWARD:          0	MERGED:    3115914	TO_CACHE:   14736005

STLB TOTAL     ACCESS:    2225268  HIT:    1855738  MISS:     369530  HIT %:    83.3939  MISS %:    16.6061   MPKI: 7.3906
STLB LOAD TRANSLATION ACCESS:     974913  HIT:     868504  MISS:     106409  HIT %:    89.0853  MISS %:    10.9147   MPKI: 2.12818
STLB TRANSLATION FROM L1D PREFETCHER ACCESS:    1250355  HIT:     987234  MISS:     263121  HIT %:    78.9563  MISS %:    21.0437   MPKI: 5.26242
STLB PREFETCH  REQUESTED:          0  ISSUED:          0  USEFUL:     164911  USELESS:      97958
STLB USEFUL LOAD PREFETCHES:     164911 PREFETCH ISSUED TO LOWER LEVEL:          0  ACCURACY: inf
STLB TIMELY PREFETCHES:     164911 LATE PREFETCHES: 486 DROPPED PREFETCHES: 0
STLB PREFETCHES SAME FILL-ORIGIN LEVEL: 0 DIFFERENT FILL-ORIGIN LEVEL: 0
STLB AVERAGE MISS LATENCY: 111.682 cycles
STLB RQ	ACCESS:    2368377	FORWARD:          0	MERGED:     141475	TO_CACHE:    2226902

STLB Hit, L1D data hit: 0
STLB Hit, L2C data hit: 0
STLB Hit, LLC data hit: 0
STLB Hit, LLC data miss: 0
STLB STLB hints to L2: 0
L1D TOTAL     ACCESS:   18733093  HIT:   16841606  MISS:    1891487  HIT %:     89.903  MISS %:     10.097   MPKI: 37.8297
L1D LOAD      ACCESS:    9498779  HIT:    8882048  MISS:     616731  HIT %:    93.5073  MISS %:    6.49274   MPKI: 12.3346
L1D RFO       ACCESS:    7898877  HIT:    7742249  MISS:     156628  HIT %:    98.0171  MISS %:    1.98291   MPKI: 3.13256
L1D PREFETCH  ACCESS:    1335437  HIT:     217309  MISS:    1118128  HIT %:    16.2725  MISS %:    83.7275   MPKI: 22.3626
AGUS PREFETCH L1 MISS: 0
L1D PREFETCH  REQUESTED:    3010373  ISSUED:    2792581  USEFUL:     442496  USELESS:     675729
L1D USEFUL LOAD PREFETCHES:     442496 PREFETCH ISSUED TO LOWER LEVEL:    1129593  ACCURACY: 39.173
L1D TIMELY PREFETCHES:     442496 LATE PREFETCHES: 10813 DROPPED PREFETCHES: 0
L1D PREFETCHES SAME FILL-ORIGIN LEVEL: 1129593 DIFFERENT FILL-ORIGIN LEVEL: 0
L1D AVERAGE MISS LATENCY: 153.038 cycles
L1D RQ	ACCESS:   14080091	FORWARD:          0	MERGED:    4057182	TO_CACHE:    9569188
L1D WQ	ACCESS:    8476021	FORWARD:     453802	MERGED:     193290	TO_CACHE:    8282731
L1D PQ	ACCESS:    1399117	FORWARD:          0	MERGED:       5572	TO_CACHE:    1393464

L1D UNIQUE REGIONS ACCESSED: 0
L1D REGIONS CONFLICTS: 0
L1D Cross Page Prefetch Requests: 1591846
L1D Same Page Prefetch Requests: 1016163
L1D ROI Sum of L1D PQ occupancy: 71180479
L1D PREFETCHES PUSHED FROM L2C: 0
L1I TOTAL     ACCESS:    9804518  HIT:    9802977  MISS:       1541  HIT %:    99.9843  MISS %:  0.0157172   MPKI: 0.03082
L1I LOAD      ACCESS:    9804518  HIT:    9802977  MISS:       1541  HIT %:    99.9843  MISS %:  0.0157172   MPKI: 0.03082
L1I PREFETCH  REQUESTED:          0  ISSUED:          0  USEFUL:          0  USELESS:          0
L1I USEFUL LOAD PREFETCHES:          0 PREFETCH ISSUED TO LOWER LEVEL:          0  ACCURACY: -nan
L1I TIMELY PREFETCHES:          0 LATE PREFETCHES: 0 DROPPED PREFETCHES: 0
L1I PREFETCHES SAME FILL-ORIGIN LEVEL: 0 DIFFERENT FILL-ORIGIN LEVEL: 0
L1I AVERAGE MISS LATENCY: 158.561 cycles
L1I RQ	ACCESS:   14758557	FORWARD:          0	MERGED:    4953740	TO_CACHE:    9804817

BTB TOTAL     ACCESS:   10008119  HIT:    9487971  MISS:     520148  HIT %:    94.8027  MISS %:    5.19726   MPKI: 10.403
BTB BRANCH_DIRECT_JUMP	ACCESS:     964405  HIT:     964243  MISS:        162
BTB BRANCH_INDIRECT	ACCESS:     140341  HIT:     116325  MISS:      24016
BTB BRANCH_CONDITIONAL	ACCESS:    5906166  HIT:    5905777  MISS:        389
BTB BRANCH_DIRECT_CALL	ACCESS:    1294152  HIT:    1293861  MISS:        291
BTB BRANCH_INDIRECT_CALL	ACCESS:     204449  HIT:     203146  MISS:       1303
BTB BRANCH_RETURN	ACCESS:    1498606  HIT:    1004619  MISS:     493987
BTB BRANCH_OTHER ACCESS:          0  HIT:          0  MISS:          0

L2C TOTAL     ACCESS:    2807893  HIT:    1228057  MISS:    1579836  HIT %:    43.7359  MISS %:    56.2641   MPKI: 31.5967
L2C LOAD      ACCESS:     607426  HIT:     192413  MISS:     415013  HIT %:    31.6768  MISS %:    68.3232   MPKI: 8.30026
L2C DATA LOAD MPKI: 8.2732
L2C INSTRUCTION LOAD MPKI: 0.02706
L2C RFO       ACCESS:     155976  HIT:      14757  MISS:     141219  HIT %:    9.46107  MISS %:    90.5389   MPKI: 2.82438
L2C PREFETCH  ACCESS:    1129580  HIT:     251758  MISS:     877822  HIT %:    22.2878  MISS %:    77.7122   MPKI: 17.5564
AGUS PREFETCH L1 MISS: 0
L2C DATA PREFETCH MPKI: 17.5564
L2C INSTRUCTION PREFETCH MPKI: 0
L2C WRITEBACK ACCESS:     507855  HIT:     506288  MISS:       1567  HIT %:    99.6914  MISS %:   0.308553   MPKI: 0.03134
L2C LOAD TRANSLATION ACCESS:     115684  HIT:      79743  MISS:      35941  HIT %:    68.9317  MISS %:    31.0683   MPKI: 0.71882
L2C TRANSLATION FROM L1D PREFETCHER ACCESS:     291372  HIT:     183098  MISS:     108274  HIT %:    62.8399  MISS %:    37.1601   MPKI: 2.16548
L2C PREFETCH  REQUESTED:          0  ISSUED:          0  USEFUL:     147200  USELESS:     839057
L2C USEFUL LOAD PREFETCHES:     147200 PREFETCH ISSUED TO LOWER LEVEL:     877822  ACCURACY: 16.7688
L2C TIMELY PREFETCHES:     147200 LATE PREFETCHES: 0 DROPPED PREFETCHES: 0
L2C PREFETCHES SAME FILL-ORIGIN LEVEL: 0 DIFFERENT FILL-ORIGIN LEVEL: 0
L2C AVERAGE MISS LATENCY: 172.494 cycles
L2C RQ	ACCESS:    1170491	FORWARD:          0	MERGED:          0	TO_CACHE:    1170458
L2C WQ	ACCESS:     507855	FORWARD:         46	MERGED:          0	TO_CACHE:     507855
L2C PQ	ACCESS:    1129593	FORWARD:          0	MERGED:          0	TO_CACHE:    1129580

L2C Instructions Evicting Data 1250
L2C Translations Evicting Data 130460
L2C Data Evicting Data 1300544
L2C Instructions Evicting Instructions 13
L2C Translations Evicting Instructions 116
L2C Data Evicting Instructions 1224
L2C Instructions Evicting Translations 90
L2C Translations Evicting Translations 13639
L2C Data Evicting Translations 130933
L2C Dense regions hint from L2: 0
PSCL5 TOTAL     ACCESS:     369530  HIT:     369530  MISS:          0  HIT %:        100  MISS %:          0   MPKI: 0
PSCL5 LOAD TRANSLATION ACCESS:     105923  HIT:     105923  MISS:          0  HIT %:        100  MISS %:          0   MPKI: 0
PSCL5 TRANSLATION FROM L1D PREFETCHER ACCESS:     263607  HIT:     263607  MISS:          0  HIT %:        100  MISS %:          0   MPKI: 0
PSCL5 PREFETCH  REQUESTED:          0  ISSUED:          0  USEFUL:          0  USELESS:          0
PSCL5 USEFUL LOAD PREFETCHES:          0 PREFETCH ISSUED TO LOWER LEVEL:          0  ACCURACY: -nan
PSCL5 TIMELY PREFETCHES:          0 LATE PREFETCHES: 0 DROPPED PREFETCHES: 0
PSCL5 PREFETCHES SAME FILL-ORIGIN LEVEL: 0 DIFFERENT FILL-ORIGIN LEVEL: 0

PSCL4 TOTAL     ACCESS:     369530  HIT:     369530  MISS:          0  HIT %:        100  MISS %:          0   MPKI: 0
PSCL4 LOAD TRANSLATION ACCESS:     105923  HIT:     105923  MISS:          0  HIT %:        100  MISS %:          0   MPKI: 0
PSCL4 TRANSLATION FROM L1D PREFETCHER ACCESS:     263607  HIT:     263607  MISS:          0  HIT %:        100  MISS %:          0   MPKI: 0
PSCL4 PREFETCH  REQUESTED:          0  ISSUED:          0  USEFUL:          0  USELESS:          0
PSCL4 USEFUL LOAD PREFETCHES:          0 PREFETCH ISSUED TO LOWER LEVEL:          0  ACCURACY: -nan
PSCL4 TIMELY PREFETCHES:          0 LATE PREFETCHES: 0 DROPPED PREFETCHES: 0
PSCL4 PREFETCHES SAME FILL-ORIGIN LEVEL: 0 DIFFERENT FILL-ORIGIN LEVEL: 0

PSCL3 TOTAL     ACCESS:     369530  HIT:     369530  MISS:          0  HIT %:        100  MISS %:          0   MPKI: 0
PSCL3 LOAD TRANSLATION ACCESS:     105923  HIT:     105923  MISS:          0  HIT %:        100  MISS %:          0   MPKI: 0
PSCL3 TRANSLATION FROM L1D PREFETCHER ACCESS:     263607  HIT:     263607  MISS:          0  HIT %:        100  MISS %:          0   MPKI: 0
PSCL3 PREFETCH  REQUESTED:          0  ISSUED:          0  USEFUL:          0  USELESS:          0
PSCL3 USEFUL LOAD PREFETCHES:          0 PREFETCH ISSUED TO LOWER LEVEL:          0  ACCURACY: -nan
PSCL3 TIMELY PREFETCHES:          0 LATE PREFETCHES: 0 DROPPED PREFETCHES: 0
PSCL3 PREFETCHES SAME FILL-ORIGIN LEVEL: 0 DIFFERENT FILL-ORIGIN LEVEL: 0

PSCL2 TOTAL     ACCESS:     369530  HIT:     332003  MISS:      37527  HIT %:    89.8447  MISS %:    10.1553   MPKI: 0.75054
PSCL2 LOAD TRANSLATION ACCESS:     133688  HIT:      96161  MISS:      37527  HIT %:    71.9294  MISS %:    28.0706   MPKI: 0.75054
PSCL2 TRANSLATION FROM L1D PREFETCHER ACCESS:     235842  HIT:     235842  MISS:          0  HIT %:        100  MISS %:          0   MPKI: 0
PSCL2 PREFETCH  REQUESTED:          0  ISSUED:          0  USEFUL:          0  USELESS:          0
PSCL2 USEFUL LOAD PREFETCHES:          0 PREFETCH ISSUED TO LOWER LEVEL:          0  ACCURACY: -nan
PSCL2 TIMELY PREFETCHES:          0 LATE PREFETCHES: 0 DROPPED PREFETCHES: 0
PSCL2 PREFETCHES SAME FILL-ORIGIN LEVEL: 0 DIFFERENT FILL-ORIGIN LEVEL: 0

LLC TOTAL     ACCESS:    2025889  HIT:     848300  MISS:    1177589  HIT %:     41.873  MISS %:     58.127   MPKI: 23.5518
LLC LOAD      ACCESS:     415013  HIT:      89728  MISS:     325285  HIT %:    21.6205  MISS %:    78.3795   MPKI: 6.5057
LLC RFO       ACCESS:     141219  HIT:      19975  MISS:     121244  HIT %:    14.1447  MISS %:    85.8553   MPKI: 2.42488
LLC PREFETCH  ACCESS:     877818  HIT:     185951  MISS:     691867  HIT %:    21.1833  MISS %:    78.8167   MPKI: 13.8373
AGUS PREFETCH L1 MISS: 0
LLC WRITEBACK ACCESS:     447624  HIT:     446547  MISS:       1077  HIT %:    99.7594  MISS %:   0.240604   MPKI: 0.02154
LLC LOAD TRANSLATION ACCESS:      35941  HIT:      28316  MISS:       7625  HIT %:    78.7847  MISS %:    21.2153   MPKI: 0.1525
LLC TRANSLATION FROM L1D PREFETCHER ACCESS:     108274  HIT:      77783  MISS:      30491  HIT %:     71.839  MISS %:     28.161   MPKI: 0.60982
LLC PREFETCH  REQUESTED:          0  ISSUED:          0  USEFUL:      49559  USELESS:     671602
LLC USEFUL LOAD PREFETCHES:      49559 PREFETCH ISSUED TO LOWER LEVEL:     691867  ACCURACY: 7.16308
LLC TIMELY PREFETCHES:      49559 LATE PREFETCHES: 0 DROPPED PREFETCHES: 0
LLC PREFETCHES SAME FILL-ORIGIN LEVEL: 0 DIFFERENT FILL-ORIGIN LEVEL: 0
LLC AVERAGE MISS LATENCY: 191.137 cycles
LLC RQ	ACCESS:     700447	FORWARD:          0	MERGED:          0	TO_CACHE:     700447
LLC WQ	ACCESS:     447624	FORWARD:          4	MERGED:          0	TO_CACHE:     447624
LLC PQ	ACCESS:     877822	FORWARD:          0	MERGED:          0	TO_CACHE:     877818

LLC Dense regions hint to LLC: 0

RAW hits: 795341
Loads Generated: 14875432
Loads sent to L1D: 14080091
Stores Generated: 8476008
Stores sent to L1D: 8476021
Major fault: 0 Minor fault: 33441
Allocated PAGES: 33441

stream: 
stream:times selected: 1006766
stream:pref_filled: 599861
stream:pref_useful: 98550
stream:pref_late: 12087
stream:misses: 241018
stream:misses_by_poll: 0

CS: 
CS:times selected: 19282
CS:pref_filled: 9125
CS:pref_useful: 1363
CS:pref_late: 93
CS:misses: 2980
CS:misses_by_poll: 4

CPLX: 
CPLX:times selected: 996327
CPLX:pref_filled: 21886
CPLX:pref_useful: 2054
CPLX:pref_late: 79
CPLX:misses: 715777
CPLX:misses_by_poll: 2

NL_L1: 
NL:times selected: 6485
NL:pref_filled: 4006
NL:pref_useful: 803
NL:pref_late: 100
NL:misses: 6473
NL:misses_by_poll: 0

total selections: 2028860
total_filled: 1118128
total_useful: 442496
total_late: 20895
total_polluted: 6
total_misses_after_warmup: 687141
conflicts: 130824

test: 704267
ISB Prefetcher final stats
Training Unit Size: 269
Addr table size: 354614 354621


Triggers: 1006770
No Prediction: 413500 41.0719
Stream end: 410225
No translation: 415922809 41312.6
Predictions: 1643308 163.226


Stream divergence: 222180 22.0686
Stream divergence -- new stream: 0

DRAM Statistics
 CHANNEL 0
 RQ ROW_BUFFER_HIT:     126386  ROW_BUFFER_MISS:    1050106
 DBUS_CONGESTED:        250
 WQ ROW_BUFFER_HIT:      60654  ROW_BUFFER_MISS:     317047  FULL:          0

 AVG_CONGESTED_CYCLE: 4
 All warmup complete: 2
Channel 0 Bank busy for read cycles: 0
Channel 0 Bank busy for write cycles: 0
Channel 0
Rank 0
0banks busy for read cycles: 64581250
0banks busy for write cycles: 111171
1banks busy for read cycles: 34092912
1banks busy for write cycles: 14064313
2banks busy for read cycles: 20312532
2banks busy for write cycles: 7334156
3banks busy for read cycles: 10054513
3banks busy for write cycles: 4472565
4banks busy for read cycles: 6018967
4banks busy for write cycles: 2838218
5banks busy for read cycles: 3761930
5banks busy for write cycles: 1777688
6banks busy for read cycles: 1876550
6banks busy for write cycles: 1029959
7banks busy for read cycles: 580648
7banks busy for write cycles: 562880
8banks busy for read cycles: 93466
8banks busy for write cycles: 263208

CPU 0 Branch Prediction Accuracy: 94.0755% MPKI: 14.2353 Average ROB Occupancy at Mispredict: 25.55
Branch types
NOT_BRANCH: 37985796 75.9716%
BRANCH_DIRECT_JUMP: 964405 1.92881%
BRANCH_INDIRECT: 140341 0.280682%
BRANCH_CONDITIONAL: 7911981 15.824%
BRANCH_DIRECT_CALL: 1294152 2.5883%
BRANCH_INDIRECT_CALL: 204449 0.408898%
BRANCH_RETURN: 1498606 2.99721%
BRANCH_OTHER: 0 0%

DRAM PAGES: 1048576
Allocated PAGES: 33441
