
*** ChampSim Multicore Out-of-Order Simulator ***

Warmup Instructions: 50000000
Simulation Instructions: 50000000
Number of CPUs: 1
LLC sets: 2048
LLC ways: 16
Off-chip DRAM Size: 4096 MB Channels: 1 Width: 64-bit Data Rate: 6400 MT/s
CPU 0 runs traces/SPEC-CPU2017/471.omnetpp-188B.champsimtrace.xz
.xz
CPU 0 Bimodal branch predictor
BTB has LRU replacement policy
ITLB has LRU replacement policy
DTLB has LRU replacement policy
STLB has LRU replacement policy
L1I has LRU replacement policy
L1D has LRU replacement policy
L2C has LRU replacement policy
LLC has LRU replacement policy
Heartbeat CPU 0 instructions: 10000001 cycles: 3274936 heartbeat IPC: 3.0535 cumulative IPC: 3.0535 (Simulation time: 0 hr 3 min 30 sec) 
Heartbeat CPU 0 instructions: 20000000 cycles: 6510117 heartbeat IPC: 3.09102 cumulative IPC: 3.07214 (Simulation time: 0 hr 6 min 53 sec) 
Heartbeat CPU 0 instructions: 30000000 cycles: 9764988 heartbeat IPC: 3.07232 cumulative IPC: 3.0722 (Simulation time: 0 hr 10 min 25 sec) 
Heartbeat CPU 0 instructions: 40000000 cycles: 13010858 heartbeat IPC: 3.08084 cumulative IPC: 3.07436 (Simulation time: 0 hr 13 min 51 sec) 
Heartbeat CPU 0 instructions: 50000003 cycles: 16245760 heartbeat IPC: 3.09128 cumulative IPC: 3.07773 (Simulation time: 0 hr 17 min 17 sec) 

Warmup complete CPU 0 instructions: 50000003 cycles: 16245760 (Simulation time: 0 hr 17 min 17 sec) 

Heartbeat CPU 0 instructions: 60000000 cycles: 56198553 heartbeat IPC: 0.250295 cumulative IPC: 0.250295 (Simulation time: 0 hr 18 min 22 sec) 
Heartbeat CPU 0 instructions: 70000001 cycles: 94696337 heartbeat IPC: 0.259755 cumulative IPC: 0.254938 (Simulation time: 0 hr 19 min 26 sec) 
Heartbeat CPU 0 instructions: 80000000 cycles: 135125328 heartbeat IPC: 0.247347 cumulative IPC: 0.252356 (Simulation time: 0 hr 20 min 33 sec) 
Heartbeat CPU 0 instructions: 90000003 cycles: 175418581 heartbeat IPC: 0.248181 cumulative IPC: 0.251299 (Simulation time: 0 hr 21 min 39 sec) 
Heartbeat CPU 0 instructions: 100000000 cycles: 215678298 heartbeat IPC: 0.248387 cumulative IPC: 0.250711 (Simulation time: 0 hr 22 min 43 sec) 
Finished CPU 0 instructions: 50000000 cycles: 199432547 cumulative IPC: 0.250711 (Simulation time: 0 hr 22 min 43 sec) 

ChampSim completed all CPUs

Region of Interest Statistics

CPU 0 cumulative IPC: 0.250711 instructions: 50000000 cycles: 199432547
ITLB TOTAL     ACCESS:    8721878  HIT:    8704675  MISS:      17203  HIT %:    99.8028  MISS %:    0.19724   MPKI: 0.34406
ITLB LOAD TRANSLATION ACCESS:    8721878  HIT:    8704675  MISS:      17203  HIT %:    99.8028  MISS %:    0.19724   MPKI: 0.34406
ITLB PREFETCH  REQUESTED:          0  ISSUED:          0  USEFUL:          0  USELESS:          0
ITLB USEFUL LOAD PREFETCHES:          0 PREFETCH ISSUED TO LOWER LEVEL:          0  ACCURACY: -nan
ITLB TIMELY PREFETCHES:          0 LATE PREFETCHES: 0 DROPPED PREFETCHES: 0
ITLB PREFETCHES SAME FILL-ORIGIN LEVEL: 0 DIFFERENT FILL-ORIGIN LEVEL: 0
ITLB AVERAGE MISS LATENCY: 12.1248 cycles
ITLB RQ	ACCESS:    9812756	FORWARD:          0	MERGED:    1083260	TO_CACHE:    8729496

DTLB TOTAL     ACCESS:   14656316  HIT:   13698814  MISS:     957502  HIT %:     93.467  MISS %:    6.53303   MPKI: 19.15
DTLB LOAD TRANSLATION ACCESS:   14656316  HIT:   13698814  MISS:     957502  HIT %:     93.467  MISS %:    6.53303   MPKI: 19.15
DTLB PREFETCH  REQUESTED:          0  ISSUED:          0  USEFUL:          0  USELESS:          0
DTLB USEFUL LOAD PREFETCHES:          0 PREFETCH ISSUED TO LOWER LEVEL:          0  ACCURACY: -nan
DTLB TIMELY PREFETCHES:          0 LATE PREFETCHES: 0 DROPPED PREFETCHES: 0
DTLB PREFETCHES SAME FILL-ORIGIN LEVEL: 0 DIFFERENT FILL-ORIGIN LEVEL: 0
DTLB AVERAGE MISS LATENCY: 20.0697 cycles
DTLB RQ	ACCESS:   17830844	FORWARD:          0	MERGED:    3129115	TO_CACHE:   14701729

STLB TOTAL     ACCESS:    3874617  HIT:    3445521  MISS:     429096  HIT %:    88.9255  MISS %:    11.0745   MPKI: 8.58192
STLB LOAD TRANSLATION ACCESS:     974705  HIT:     822229  MISS:     152476  HIT %:    84.3567  MISS %:    15.6433   MPKI: 3.04952
STLB TRANSLATION FROM L1D PREFETCHER ACCESS:    2899912  HIT:    2623292  MISS:     276620  HIT %:    90.4611  MISS %:    9.53891   MPKI: 5.5324
STLB PREFETCH  REQUESTED:          0  ISSUED:          0  USEFUL:     174961  USELESS:     101683
STLB USEFUL LOAD PREFETCHES:     174961 PREFETCH ISSUED TO LOWER LEVEL:          0  ACCURACY: inf
STLB TIMELY PREFETCHES:     174961 LATE PREFETCHES: 1125 DROPPED PREFETCHES: 0
STLB PREFETCHES SAME FILL-ORIGIN LEVEL: 0 DIFFERENT FILL-ORIGIN LEVEL: 0
STLB AVERAGE MISS LATENCY: 82.661 cycles
STLB RQ	ACCESS:    4389615	FORWARD:          0	MERGED:     511892	TO_CACHE:    3877723

STLB Hit, L1D data hit: 0
STLB Hit, L2C data hit: 0
STLB Hit, LLC data hit: 0
STLB Hit, LLC data miss: 0
STLB STLB hints to L2: 0
L1D TOTAL     ACCESS:   20666563  HIT:   18630929  MISS:    2035634  HIT %:    90.1501  MISS %:    9.84989   MPKI: 40.7127
L1D LOAD      ACCESS:    9467349  HIT:    8653903  MISS:     813446  HIT %:    91.4079  MISS %:    8.59212   MPKI: 16.2689
L1D RFO       ACCESS:    7872284  HIT:    7712246  MISS:     160038  HIT %:    97.9671  MISS %:    2.03293   MPKI: 3.20076
L1D PREFETCH  ACCESS:    3326930  HIT:    2264780  MISS:    1062150  HIT %:    68.0742  MISS %:    31.9258   MPKI: 21.243
AGUS PREFETCH L1 MISS: 0
L1D PREFETCH  REQUESTED:    7136698  ISSUED:    6871565  USEFUL:     245482  USELESS:     816697
L1D USEFUL LOAD PREFETCHES:     245482 PREFETCH ISSUED TO LOWER LEVEL:    1092088  ACCURACY: 22.4782
L1D TIMELY PREFETCHES:     245482 LATE PREFETCHES: 28739 DROPPED PREFETCHES: 0
L1D PREFETCHES SAME FILL-ORIGIN LEVEL: 1092088 DIFFERENT FILL-ORIGIN LEVEL: 0
L1D AVERAGE MISS LATENCY: 156.542 cycles
L1D RQ	ACCESS:   14040773	FORWARD:          0	MERGED:    4041405	TO_CACHE:    9560254
L1D WQ	ACCESS:    8476021	FORWARD:     439377	MERGED:     205431	TO_CACHE:    8270590
L1D PQ	ACCESS:    3456655	FORWARD:          0	MERGED:      41482	TO_CACHE:    3414910

L1D UNIQUE REGIONS ACCESSED: 0
L1D REGIONS CONFLICTS: 0
L1D Cross Page Prefetch Requests: 2821289
L1D Same Page Prefetch Requests: 3761436
L1D ROI Sum of L1D PQ occupancy: 105094655
L1D PREFETCHES PUSHED FROM L2C: 0
L1I TOTAL     ACCESS:    9812458  HIT:    9810917  MISS:       1541  HIT %:    99.9843  MISS %:  0.0157045   MPKI: 0.03082
L1I LOAD      ACCESS:    9812458  HIT:    9810917  MISS:       1541  HIT %:    99.9843  MISS %:  0.0157045   MPKI: 0.03082
L1I PREFETCH  REQUESTED:          0  ISSUED:          0  USEFUL:          0  USELESS:          0
L1I USEFUL LOAD PREFETCHES:          0 PREFETCH ISSUED TO LOWER LEVEL:          0  ACCURACY: -nan
L1I TIMELY PREFETCHES:          0 LATE PREFETCHES: 0 DROPPED PREFETCHES: 0
L1I PREFETCHES SAME FILL-ORIGIN LEVEL: 0 DIFFERENT FILL-ORIGIN LEVEL: 0
L1I AVERAGE MISS LATENCY: 162.311 cycles
L1I RQ	ACCESS:   14774695	FORWARD:          0	MERGED:    4961939	TO_CACHE:    9812756

BTB TOTAL     ACCESS:   10008119  HIT:    9487971  MISS:     520148  HIT %:    94.8027  MISS %:    5.19726   MPKI: 10.403
BTB BRANCH_DIRECT_JUMP	ACCESS:     964405  HIT:     964243  MISS:        162
BTB BRANCH_INDIRECT	ACCESS:     140341  HIT:     116325  MISS:      24016
BTB BRANCH_CONDITIONAL	ACCESS:    5906166  HIT:    5905777  MISS:        389
BTB BRANCH_DIRECT_CALL	ACCESS:    1294152  HIT:    1293861  MISS:        291
BTB BRANCH_INDIRECT_CALL	ACCESS:     204449  HIT:     203146  MISS:       1303
BTB BRANCH_RETURN	ACCESS:    1498606  HIT:    1004619  MISS:     493987
BTB BRANCH_OTHER ACCESS:          0  HIT:          0  MISS:          0

L2C TOTAL     ACCESS:    3067273  HIT:    1224587  MISS:    1842686  HIT %:    39.9243  MISS %:    60.0757   MPKI: 36.8537
L2C LOAD      ACCESS:     786225  HIT:     138543  MISS:     647682  HIT %:    17.6213  MISS %:    82.3787   MPKI: 12.9536
L2C DATA LOAD MPKI: 12.9264
L2C INSTRUCTION LOAD MPKI: 0.02724
L2C RFO       ACCESS:     158838  HIT:      13127  MISS:     145711  HIT %:     8.2644  MISS %:    91.7356   MPKI: 2.91422
L2C PREFETCH  ACCESS:    1092053  HIT:     233382  MISS:     858671  HIT %:    21.3709  MISS %:    78.6291   MPKI: 17.1734
AGUS PREFETCH L1 MISS: 0
L2C DATA PREFETCH MPKI: 17.1734
L2C INSTRUCTION PREFETCH MPKI: 0
L2C WRITEBACK ACCESS:     506532  HIT:     504210  MISS:       2322  HIT %:    99.5416  MISS %:   0.458411   MPKI: 0.04644
L2C LOAD TRANSLATION ACCESS:     174896  HIT:     122120  MISS:      52776  HIT %:    69.8244  MISS %:    30.1756   MPKI: 1.05552
L2C TRANSLATION FROM L1D PREFETCHER ACCESS:     348729  HIT:     213205  MISS:     135524  HIT %:    61.1377  MISS %:    38.8623   MPKI: 2.71048
L2C PREFETCH  REQUESTED:          0  ISSUED:          0  USEFUL:      97076  USELESS:     896870
L2C USEFUL LOAD PREFETCHES:      97076 PREFETCH ISSUED TO LOWER LEVEL:     858672  ACCURACY: 11.3054
L2C TIMELY PREFETCHES:      97076 LATE PREFETCHES: 0 DROPPED PREFETCHES: 0
L2C PREFETCHES SAME FILL-ORIGIN LEVEL: 0 DIFFERENT FILL-ORIGIN LEVEL: 0
L2C AVERAGE MISS LATENCY: 165.198 cycles
L2C RQ	ACCESS:    1468713	FORWARD:          0	MERGED:          0	TO_CACHE:    1468688
L2C WQ	ACCESS:     506532	FORWARD:         59	MERGED:          0	TO_CACHE:     506532
L2C PQ	ACCESS:    1092088	FORWARD:          0	MERGED:          0	TO_CACHE:    1092054

L2C Instructions Evicting Data 1245
L2C Translations Evicting Data 167927
L2C Data Evicting Data 1481160
L2C Instructions Evicting Instructions 9
L2C Translations Evicting Instructions 126
L2C Data Evicting Instructions 1227
L2C Instructions Evicting Translations 108
L2C Translations Evicting Translations 20247
L2C Data Evicting Translations 168315
L2C Dense regions hint from L2: 0
PSCL5 TOTAL     ACCESS:     429096  HIT:     429096  MISS:          0  HIT %:        100  MISS %:          0   MPKI: 0
PSCL5 LOAD TRANSLATION ACCESS:     151351  HIT:     151351  MISS:          0  HIT %:        100  MISS %:          0   MPKI: 0
PSCL5 TRANSLATION FROM L1D PREFETCHER ACCESS:     277745  HIT:     277745  MISS:          0  HIT %:        100  MISS %:          0   MPKI: 0
PSCL5 PREFETCH  REQUESTED:          0  ISSUED:          0  USEFUL:          0  USELESS:          0
PSCL5 USEFUL LOAD PREFETCHES:          0 PREFETCH ISSUED TO LOWER LEVEL:          0  ACCURACY: -nan
PSCL5 TIMELY PREFETCHES:          0 LATE PREFETCHES: 0 DROPPED PREFETCHES: 0
PSCL5 PREFETCHES SAME FILL-ORIGIN LEVEL: 0 DIFFERENT FILL-ORIGIN LEVEL: 0

PSCL4 TOTAL     ACCESS:     429096  HIT:     429096  MISS:          0  HIT %:        100  MISS %:          0   MPKI: 0
PSCL4 LOAD TRANSLATION ACCESS:     151351  HIT:     151351  MISS:          0  HIT %:        100  MISS %:          0   MPKI: 0
PSCL4 TRANSLATION FROM L1D PREFETCHER ACCESS:     277745  HIT:     277745  MISS:          0  HIT %:        100  MISS %:          0   MPKI: 0
PSCL4 PREFETCH  REQUESTED:          0  ISSUED:          0  USEFUL:          0  USELESS:          0
PSCL4 USEFUL LOAD PREFETCHES:          0 PREFETCH ISSUED TO LOWER LEVEL:          0  ACCURACY: -nan
PSCL4 TIMELY PREFETCHES:          0 LATE PREFETCHES: 0 DROPPED PREFETCHES: 0
PSCL4 PREFETCHES SAME FILL-ORIGIN LEVEL: 0 DIFFERENT FILL-ORIGIN LEVEL: 0

PSCL3 TOTAL     ACCESS:     429096  HIT:     429096  MISS:          0  HIT %:        100  MISS %:          0   MPKI: 0
PSCL3 LOAD TRANSLATION ACCESS:     151351  HIT:     151351  MISS:          0  HIT %:        100  MISS %:          0   MPKI: 0
PSCL3 TRANSLATION FROM L1D PREFETCHER ACCESS:     277745  HIT:     277745  MISS:          0  HIT %:        100  MISS %:          0   MPKI: 0
PSCL3 PREFETCH  REQUESTED:          0  ISSUED:          0  USEFUL:          0  USELESS:          0
PSCL3 USEFUL LOAD PREFETCHES:          0 PREFETCH ISSUED TO LOWER LEVEL:          0  ACCURACY: -nan
PSCL3 TIMELY PREFETCHES:          0 LATE PREFETCHES: 0 DROPPED PREFETCHES: 0
PSCL3 PREFETCHES SAME FILL-ORIGIN LEVEL: 0 DIFFERENT FILL-ORIGIN LEVEL: 0

PSCL2 TOTAL     ACCESS:     429096  HIT:     334566  MISS:      94530  HIT %:      77.97  MISS %:      22.03   MPKI: 1.8906
PSCL2 LOAD TRANSLATION ACCESS:     222335  HIT:     127805  MISS:      94530  HIT %:    57.4831  MISS %:    42.5169   MPKI: 1.8906
PSCL2 TRANSLATION FROM L1D PREFETCHER ACCESS:     206761  HIT:     206761  MISS:          0  HIT %:        100  MISS %:          0   MPKI: 0
PSCL2 PREFETCH  REQUESTED:          0  ISSUED:          0  USEFUL:          0  USELESS:          0
PSCL2 USEFUL LOAD PREFETCHES:          0 PREFETCH ISSUED TO LOWER LEVEL:          0  ACCURACY: -nan
PSCL2 TIMELY PREFETCHES:          0 LATE PREFETCHES: 0 DROPPED PREFETCHES: 0
PSCL2 PREFETCHES SAME FILL-ORIGIN LEVEL: 0 DIFFERENT FILL-ORIGIN LEVEL: 0

LLC TOTAL     ACCESS:    2290390  HIT:     872076  MISS:    1418314  HIT %:    38.0754  MISS %:    61.9246   MPKI: 28.3663
LLC LOAD      ACCESS:     647680  HIT:     107498  MISS:     540182  HIT %:    16.5974  MISS %:    83.4026   MPKI: 10.8036
LLC RFO       ACCESS:     145711  HIT:      20448  MISS:     125263  HIT %:    14.0333  MISS %:    85.9667   MPKI: 2.50526
LLC PREFETCH  ACCESS:     858671  HIT:     163732  MISS:     694939  HIT %:    19.0681  MISS %:    80.9319   MPKI: 13.8988
AGUS PREFETCH L1 MISS: 0
LLC WRITEBACK ACCESS:     450028  HIT:     448372  MISS:       1656  HIT %:     99.632  MISS %:   0.367977   MPKI: 0.03312
LLC LOAD TRANSLATION ACCESS:      52776  HIT:      41027  MISS:      11749  HIT %:     77.738  MISS %:     22.262   MPKI: 0.23498
LLC TRANSLATION FROM L1D PREFETCHER ACCESS:     135524  HIT:      90999  MISS:      44525  HIT %:     67.146  MISS %:     32.854   MPKI: 0.8905
LLC PREFETCH  REQUESTED:          0  ISSUED:          0  USEFUL:      55448  USELESS:     684591
LLC USEFUL LOAD PREFETCHES:      55448 PREFETCH ISSUED TO LOWER LEVEL:     694940  ACCURACY: 7.97882
LLC TIMELY PREFETCHES:      55448 LATE PREFETCHES: 0 DROPPED PREFETCHES: 0
LLC PREFETCHES SAME FILL-ORIGIN LEVEL: 0 DIFFERENT FILL-ORIGIN LEVEL: 0
LLC AVERAGE MISS LATENCY: 175.649 cycles
LLC RQ	ACCESS:     981693	FORWARD:          0	MERGED:          0	TO_CACHE:     981691
LLC WQ	ACCESS:     450028	FORWARD:          2	MERGED:          0	TO_CACHE:     450028
LLC PQ	ACCESS:     858672	FORWARD:          0	MERGED:          0	TO_CACHE:     858672

LLC Dense regions hint to LLC: 0

RAW hits: 834662
Loads Generated: 14875435
Loads sent to L1D: 14040773
Stores Generated: 8476009
Stores sent to L1D: 8476021
Major fault: 0 Minor fault: 33441
Allocated PAGES: 33441

stream: 
stream:times selected: 4300297
stream:pref_filled: 772605
stream:pref_useful: 133569
stream:pref_late: 15010
stream:misses: 20819
stream:misses_by_poll: 0

CS: 
CS:times selected: 56484
CS:pref_filled: 21063
CS:pref_useful: 4311
CS:pref_late: 300
CS:misses: 586
CS:misses_by_poll: 0

CPLX: 
CPLX:times selected: 4259738
CPLX:pref_filled: 224533
CPLX:pref_useful: 9082
CPLX:pref_late: 1392
CPLX:misses: 65855
CPLX:misses_by_poll: 135

ISB: 
ISB:times selected:4025994
ISB:pref_filled: 908131
ISB:pref_useful: 279779
ISB:pref_late: 22840
ISB:misses: 467614
ISB:misses_by_poll: 1643

NL_L1: 
NL:times selected: 6119
NL:pref_filled: 2225
NL:pref_useful: 328
NL:pref_late: 44
NL:misses: 1386
NL:misses_by_poll: 0

total selections: 12648632
total_filled: 1062150
total_useful: 245482
total_late: 41181
total_polluted: 1778
total_misses_after_warmup: 906351
conflicts: 4580366

test: 2670591

DRAM Statistics
 CHANNEL 0
 RQ ROW_BUFFER_HIT:     137215  ROW_BUFFER_MISS:    1279400
 DBUS_CONGESTED:        579
 WQ ROW_BUFFER_HIT:     123022  ROW_BUFFER_MISS:     265186  FULL:          0

 AVG_CONGESTED_CYCLE: 4
 All warmup complete: 2
Channel 0 Bank busy for read cycles: 0
Channel 0 Bank busy for write cycles: 0
Channel 0
Rank 0
0banks busy for read cycles: 48637947
0banks busy for write cycles: 116621
1banks busy for read cycles: 57155085
1banks busy for write cycles: 18058669
2banks busy for read cycles: 28864190
2banks busy for write cycles: 9998076
3banks busy for read cycles: 14035017
3banks busy for write cycles: 5849987
4banks busy for read cycles: 5923804
4banks busy for write cycles: 3469208
5banks busy for read cycles: 2390931
5banks busy for write cycles: 1996006
6banks busy for read cycles: 765173
6banks busy for write cycles: 1056693
7banks busy for read cycles: 187017
7banks busy for write cycles: 566709
8banks busy for read cycles: 29490
8banks busy for write cycles: 331925

CPU 0 Branch Prediction Accuracy: 94.0755% MPKI: 14.2353 Average ROB Occupancy at Mispredict: 26.2247
Branch types
NOT_BRANCH: 37985796 75.9716%
BRANCH_DIRECT_JUMP: 964405 1.92881%
BRANCH_INDIRECT: 140341 0.280682%
BRANCH_CONDITIONAL: 7911981 15.824%
BRANCH_DIRECT_CALL: 1294152 2.5883%
BRANCH_INDIRECT_CALL: 204449 0.408898%
BRANCH_RETURN: 1498606 2.99721%
BRANCH_OTHER: 0 0%

DRAM PAGES: 1048576
Allocated PAGES: 33441
