
*** ChampSim Multicore Out-of-Order Simulator ***

Warmup Instructions: 50000000
Simulation Instructions: 50000000
Number of CPUs: 1
LLC sets: 2048
LLC ways: 16
Off-chip DRAM Size: 4096 MB Channels: 1 Width: 64-bit Data Rate: 6400 MT/s
CPU 0 runs traces/SPEC-CPU2017/471.omnetpp-188B.champsimtrace.xz
.xz
CPU 0 Bimodal branch predictor
BTB has LRU replacement policy
ITLB has LRU replacement policy
DTLB has LRU replacement policy
STLB has LRU replacement policy
L1I has LRU replacement policy
L1D has LRU replacement policy
L2C has LRU replacement policy
LLC has LRU replacement policy
Heartbeat CPU 0 instructions: 10000001 cycles: 3267761 heartbeat IPC: 3.0602 cumulative IPC: 3.0602 (Simulation time: 0 hr 3 min 21 sec) 
Heartbeat CPU 0 instructions: 20000000 cycles: 6494058 heartbeat IPC: 3.09953 cumulative IPC: 3.07974 (Simulation time: 0 hr 6 min 35 sec) 
Heartbeat CPU 0 instructions: 30000000 cycles: 9754658 heartbeat IPC: 3.06692 cumulative IPC: 3.07545 (Simulation time: 0 hr 9 min 58 sec) 
Heartbeat CPU 0 instructions: 40000000 cycles: 12996742 heartbeat IPC: 3.08444 cumulative IPC: 3.07769 (Simulation time: 0 hr 13 min 15 sec) 
Heartbeat CPU 0 instructions: 50000003 cycles: 16246819 heartbeat IPC: 3.07685 cumulative IPC: 3.07753 (Simulation time: 0 hr 16 min 34 sec) 

Warmup complete CPU 0 instructions: 50000003 cycles: 16246819 (Simulation time: 0 hr 16 min 34 sec) 

Heartbeat CPU 0 instructions: 60000000 cycles: 58275137 heartbeat IPC: 0.237935 cumulative IPC: 0.237935 (Simulation time: 0 hr 17 min 31 sec) 
Heartbeat CPU 0 instructions: 70000001 cycles: 99406908 heartbeat IPC: 0.243121 cumulative IPC: 0.2405 (Simulation time: 0 hr 18 min 28 sec) 
Heartbeat CPU 0 instructions: 80000000 cycles: 142967184 heartbeat IPC: 0.229567 cumulative IPC: 0.236742 (Simulation time: 0 hr 19 min 28 sec) 
Heartbeat CPU 0 instructions: 90000003 cycles: 186875284 heartbeat IPC: 0.227748 cumulative IPC: 0.234427 (Simulation time: 0 hr 20 min 27 sec) 
Heartbeat CPU 0 instructions: 100000000 cycles: 230827853 heartbeat IPC: 0.227518 cumulative IPC: 0.233012 (Simulation time: 0 hr 21 min 25 sec) 
Finished CPU 0 instructions: 50000000 cycles: 214581043 cumulative IPC: 0.233012 (Simulation time: 0 hr 21 min 25 sec) 

ChampSim completed all CPUs

Region of Interest Statistics

CPU 0 cumulative IPC: 0.233012 instructions: 50000000 cycles: 214581043
ITLB TOTAL     ACCESS:    8725547  HIT:    8708344  MISS:      17203  HIT %:    99.8028  MISS %:   0.197157   MPKI: 0.34406
ITLB LOAD TRANSLATION ACCESS:    8725547  HIT:    8708344  MISS:      17203  HIT %:    99.8028  MISS %:   0.197157   MPKI: 0.34406
ITLB PREFETCH  REQUESTED:          0  ISSUED:          0  USEFUL:          0  USELESS:          0
ITLB USEFUL LOAD PREFETCHES:          0 PREFETCH ISSUED TO LOWER LEVEL:          0  ACCURACY: -nan
ITLB TIMELY PREFETCHES:          0 LATE PREFETCHES: 0 DROPPED PREFETCHES: 0
ITLB PREFETCHES SAME FILL-ORIGIN LEVEL: 0 DIFFERENT FILL-ORIGIN LEVEL: 0
ITLB AVERAGE MISS LATENCY: 11.3181 cycles
ITLB RQ	ACCESS:    9817796	FORWARD:          0	MERGED:    1084633	TO_CACHE:    8733163

DTLB TOTAL     ACCESS:   14670673  HIT:   13713192  MISS:     957481  HIT %:    93.4735  MISS %:     6.5265   MPKI: 19.1496
DTLB LOAD TRANSLATION ACCESS:   14670673  HIT:   13713192  MISS:     957481  HIT %:    93.4735  MISS %:     6.5265   MPKI: 19.1496
DTLB PREFETCH  REQUESTED:          0  ISSUED:          0  USEFUL:          0  USELESS:          0
DTLB USEFUL LOAD PREFETCHES:          0 PREFETCH ISSUED TO LOWER LEVEL:          0  ACCURACY: -nan
DTLB TIMELY PREFETCHES:          0 LATE PREFETCHES: 0 DROPPED PREFETCHES: 0
DTLB PREFETCHES SAME FILL-ORIGIN LEVEL: 0 DIFFERENT FILL-ORIGIN LEVEL: 0
DTLB AVERAGE MISS LATENCY: 26.3674 cycles
DTLB RQ	ACCESS:   17856084	FORWARD:          0	MERGED:    3138264	TO_CACHE:   14717820

STLB TOTAL     ACCESS:    2485928  HIT:    2263725  MISS:     222203  HIT %:    91.0616  MISS %:    8.93843   MPKI: 4.44406
STLB LOAD TRANSLATION ACCESS:     974684  HIT:     755176  MISS:     219508  HIT %:    77.4791  MISS %:    22.5209   MPKI: 4.39016
STLB TRANSLATION FROM L1D PREFETCHER ACCESS:    1511244  HIT:    1508549  MISS:       2695  HIT %:    99.8217  MISS %:    0.17833   MPKI: 0.0539
STLB PREFETCH  REQUESTED:          0  ISSUED:          0  USEFUL:       1208  USELESS:       1481
STLB USEFUL LOAD PREFETCHES:       1208 PREFETCH ISSUED TO LOWER LEVEL:          0  ACCURACY: inf
STLB TIMELY PREFETCHES:       1208 LATE PREFETCHES: 31 DROPPED PREFETCHES: 0
STLB PREFETCHES SAME FILL-ORIGIN LEVEL: 0 DIFFERENT FILL-ORIGIN LEVEL: 0
STLB AVERAGE MISS LATENCY: 75.8802 cycles
STLB RQ	ACCESS:    2866428	FORWARD:          0	MERGED:     380461	TO_CACHE:    2485967

STLB Hit, L1D data hit: 0
STLB Hit, L2C data hit: 0
STLB Hit, LLC data hit: 0
STLB Hit, LLC data miss: 0
STLB STLB hints to L2: 0
L1D TOTAL     ACCESS:   19151981  HIT:   17485370  MISS:    1666611  HIT %:     91.298  MISS %:    8.70203   MPKI: 33.3322
L1D LOAD      ACCESS:    9463321  HIT:    8532043  MISS:     931278  HIT %:    90.1591  MISS %:    9.84092   MPKI: 18.6256
L1D RFO       ACCESS:    7857094  HIT:    7689661  MISS:     167433  HIT %:     97.869  MISS %:    2.13098   MPKI: 3.34866
L1D PREFETCH  ACCESS:    1831566  HIT:    1263666  MISS:     567900  HIT %:    68.9937  MISS %:    31.0063   MPKI: 11.358
AGUS PREFETCH L1 MISS: 0
L1D PREFETCH  REQUESTED:    3786333  ISSUED:    3783737  USEFUL:     100858  USELESS:     467074
L1D USEFUL LOAD PREFETCHES:     100858 PREFETCH ISSUED TO LOWER LEVEL:     580165  ACCURACY: 17.3844
L1D TIMELY PREFETCHES:     100858 LATE PREFETCHES: 11888 DROPPED PREFETCHES: 0
L1D PREFETCHES SAME FILL-ORIGIN LEVEL: 580165 DIFFERENT FILL-ORIGIN LEVEL: 0
L1D AVERAGE MISS LATENCY: 157.406 cycles
L1D RQ	ACCESS:   14057811	FORWARD:          0	MERGED:    4058101	TO_CACHE:    9562823
L1D WQ	ACCESS:    8476021	FORWARD:     437003	MERGED:     182760	TO_CACHE:    8293261
L1D PQ	ACCESS:    1891993	FORWARD:          0	MERGED:        133	TO_CACHE:    1891744

L1D UNIQUE REGIONS ACCESSED: 0
L1D REGIONS CONFLICTS: 0
L1D Cross Page Prefetch Requests: 14911
L1D Same Page Prefetch Requests: 3664034
L1D ROI Sum of L1D PQ occupancy: 25460237
L1D PREFETCHES PUSHED FROM L2C: 0
L1I TOTAL     ACCESS:    9817499  HIT:    9815958  MISS:       1541  HIT %:    99.9843  MISS %:  0.0156965   MPKI: 0.03082
L1I LOAD      ACCESS:    9817499  HIT:    9815958  MISS:       1541  HIT %:    99.9843  MISS %:  0.0156965   MPKI: 0.03082
L1I PREFETCH  REQUESTED:          0  ISSUED:          0  USEFUL:          0  USELESS:          0
L1I USEFUL LOAD PREFETCHES:          0 PREFETCH ISSUED TO LOWER LEVEL:          0  ACCURACY: -nan
L1I TIMELY PREFETCHES:          0 LATE PREFETCHES: 0 DROPPED PREFETCHES: 0
L1I PREFETCHES SAME FILL-ORIGIN LEVEL: 0 DIFFERENT FILL-ORIGIN LEVEL: 0
L1I AVERAGE MISS LATENCY: 157.849 cycles
L1I RQ	ACCESS:   14785154	FORWARD:          0	MERGED:    4967358	TO_CACHE:    9817796

BTB TOTAL     ACCESS:   10008119  HIT:    9487971  MISS:     520148  HIT %:    94.8027  MISS %:    5.19726   MPKI: 10.403
BTB BRANCH_DIRECT_JUMP	ACCESS:     964405  HIT:     964243  MISS:        162
BTB BRANCH_INDIRECT	ACCESS:     140341  HIT:     116325  MISS:      24016
BTB BRANCH_CONDITIONAL	ACCESS:    5906166  HIT:    5905777  MISS:        389
BTB BRANCH_DIRECT_CALL	ACCESS:    1294152  HIT:    1293861  MISS:        291
BTB BRANCH_INDIRECT_CALL	ACCESS:     204449  HIT:     203146  MISS:       1303
BTB BRANCH_RETURN	ACCESS:    1498606  HIT:    1004619  MISS:     493987
BTB BRANCH_OTHER ACCESS:          0  HIT:          0  MISS:          0

L2C TOTAL     ACCESS:    2402442  HIT:     885872  MISS:    1516570  HIT %:    36.8738  MISS %:    63.1262   MPKI: 30.3314
L2C LOAD      ACCESS:     920903  HIT:     125337  MISS:     795566  HIT %:    13.6102  MISS %:    86.3898   MPKI: 15.9113
L2C DATA LOAD MPKI: 15.8846
L2C INSTRUCTION LOAD MPKI: 0.02676
L2C RFO       ACCESS:     167056  HIT:      10756  MISS:     156300  HIT %:    6.43856  MISS %:    93.5614   MPKI: 3.126
L2C PREFETCH  ACCESS:     580160  HIT:     113698  MISS:     466462  HIT %:    19.5977  MISS %:    80.4023   MPKI: 9.32924
AGUS PREFETCH L1 MISS: 0
L2C DATA PREFETCH MPKI: 9.32924
L2C INSTRUCTION PREFETCH MPKI: 0
L2C WRITEBACK ACCESS:     499277  HIT:     497434  MISS:       1843  HIT %:    99.6309  MISS %:   0.369134   MPKI: 0.03686
L2C LOAD TRANSLATION ACCESS:     231752  HIT:     137308  MISS:      94444  HIT %:    59.2478  MISS %:    40.7522   MPKI: 1.88888
L2C TRANSLATION FROM L1D PREFETCHER ACCESS:       3294  HIT:       1339  MISS:       1955  HIT %:    40.6497  MISS %:    59.3503   MPKI: 0.0391
L2C PREFETCH  REQUESTED:          0  ISSUED:          0  USEFUL:      16273  USELESS:     451916
L2C USEFUL LOAD PREFETCHES:      16273 PREFETCH ISSUED TO LOWER LEVEL:     466462  ACCURACY: 3.4886
L2C TIMELY PREFETCHES:      16273 LATE PREFETCHES: 0 DROPPED PREFETCHES: 0
L2C PREFETCHES SAME FILL-ORIGIN LEVEL: 0 DIFFERENT FILL-ORIGIN LEVEL: 0
L2C AVERAGE MISS LATENCY: 162.754 cycles
L2C RQ	ACCESS:    1323033	FORWARD:          0	MERGED:          0	TO_CACHE:    1323005
L2C WQ	ACCESS:     499277	FORWARD:         33	MERGED:          0	TO_CACHE:     499277
L2C PQ	ACCESS:     580165	FORWARD:          0	MERGED:          0	TO_CACHE:     580160

L2C Instructions Evicting Data 1278
L2C Translations Evicting Data 90085
L2C Data Evicting Data 1324962
L2C Instructions Evicting Instructions 7
L2C Translations Evicting Instructions 65
L2C Data Evicting Instructions 1264
L2C Instructions Evicting Translations 53
L2C Translations Evicting Translations 6249
L2C Data Evicting Translations 90764
L2C Dense regions hint from L2: 0
PSCL5 TOTAL     ACCESS:     222203  HIT:     222203  MISS:          0  HIT %:        100  MISS %:          0   MPKI: 0
PSCL5 LOAD TRANSLATION ACCESS:     219477  HIT:     219477  MISS:          0  HIT %:        100  MISS %:          0   MPKI: 0
PSCL5 TRANSLATION FROM L1D PREFETCHER ACCESS:       2726  HIT:       2726  MISS:          0  HIT %:        100  MISS %:          0   MPKI: 0
PSCL5 PREFETCH  REQUESTED:          0  ISSUED:          0  USEFUL:          0  USELESS:          0
PSCL5 USEFUL LOAD PREFETCHES:          0 PREFETCH ISSUED TO LOWER LEVEL:          0  ACCURACY: -nan
PSCL5 TIMELY PREFETCHES:          0 LATE PREFETCHES: 0 DROPPED PREFETCHES: 0
PSCL5 PREFETCHES SAME FILL-ORIGIN LEVEL: 0 DIFFERENT FILL-ORIGIN LEVEL: 0

PSCL4 TOTAL     ACCESS:     222203  HIT:     222203  MISS:          0  HIT %:        100  MISS %:          0   MPKI: 0
PSCL4 LOAD TRANSLATION ACCESS:     219477  HIT:     219477  MISS:          0  HIT %:        100  MISS %:          0   MPKI: 0
PSCL4 TRANSLATION FROM L1D PREFETCHER ACCESS:       2726  HIT:       2726  MISS:          0  HIT %:        100  MISS %:          0   MPKI: 0
PSCL4 PREFETCH  REQUESTED:          0  ISSUED:          0  USEFUL:          0  USELESS:          0
PSCL4 USEFUL LOAD PREFETCHES:          0 PREFETCH ISSUED TO LOWER LEVEL:          0  ACCURACY: -nan
PSCL4 TIMELY PREFETCHES:          0 LATE PREFETCHES: 0 DROPPED PREFETCHES: 0
PSCL4 PREFETCHES SAME FILL-ORIGIN LEVEL: 0 DIFFERENT FILL-ORIGIN LEVEL: 0

PSCL3 TOTAL     ACCESS:     222203  HIT:     222203  MISS:          0  HIT %:        100  MISS %:          0   MPKI: 0
PSCL3 LOAD TRANSLATION ACCESS:     219477  HIT:     219477  MISS:          0  HIT %:        100  MISS %:          0   MPKI: 0
PSCL3 TRANSLATION FROM L1D PREFETCHER ACCESS:       2726  HIT:       2726  MISS:          0  HIT %:        100  MISS %:          0   MPKI: 0
PSCL3 PREFETCH  REQUESTED:          0  ISSUED:          0  USEFUL:          0  USELESS:          0
PSCL3 USEFUL LOAD PREFETCHES:          0 PREFETCH ISSUED TO LOWER LEVEL:          0  ACCURACY: -nan
PSCL3 TIMELY PREFETCHES:          0 LATE PREFETCHES: 0 DROPPED PREFETCHES: 0
PSCL3 PREFETCHES SAME FILL-ORIGIN LEVEL: 0 DIFFERENT FILL-ORIGIN LEVEL: 0

PSCL2 TOTAL     ACCESS:     222203  HIT:     209359  MISS:      12844  HIT %:    94.2197  MISS %:     5.7803   MPKI: 0.25688
PSCL2 LOAD TRANSLATION ACCESS:     220045  HIT:     207201  MISS:      12844  HIT %:     94.163  MISS %:    5.83699   MPKI: 0.25688
PSCL2 TRANSLATION FROM L1D PREFETCHER ACCESS:       2158  HIT:       2158  MISS:          0  HIT %:        100  MISS %:          0   MPKI: 0
PSCL2 PREFETCH  REQUESTED:          0  ISSUED:          0  USEFUL:          0  USELESS:          0
PSCL2 USEFUL LOAD PREFETCHES:          0 PREFETCH ISSUED TO LOWER LEVEL:          0  ACCURACY: -nan
PSCL2 TIMELY PREFETCHES:          0 LATE PREFETCHES: 0 DROPPED PREFETCHES: 0
PSCL2 PREFETCHES SAME FILL-ORIGIN LEVEL: 0 DIFFERENT FILL-ORIGIN LEVEL: 0

LLC TOTAL     ACCESS:    1959666  HIT:     731883  MISS:    1227783  HIT %:    37.3473  MISS %:    62.6527   MPKI: 24.5557
LLC LOAD      ACCESS:     795565  HIT:     127578  MISS:     667987  HIT %:    16.0362  MISS %:    83.9638   MPKI: 13.3597
LLC RFO       ACCESS:     156300  HIT:      20805  MISS:     135495  HIT %:    13.3109  MISS %:    86.6891   MPKI: 2.7099
LLC PREFETCH  ACCESS:     466462  HIT:      81073  MISS:     385389  HIT %:    17.3804  MISS %:    82.6196   MPKI: 7.70778
AGUS PREFETCH L1 MISS: 0
LLC WRITEBACK ACCESS:     444940  HIT:     443557  MISS:       1383  HIT %:    99.6892  MISS %:   0.310828   MPKI: 0.02766
LLC LOAD TRANSLATION ACCESS:      94444  HIT:      57932  MISS:      36512  HIT %:    61.3401  MISS %:    38.6599   MPKI: 0.73024
LLC TRANSLATION FROM L1D PREFETCHER ACCESS:       1955  HIT:        938  MISS:       1017  HIT %:    47.9795  MISS %:    52.0205   MPKI: 0.02034
LLC PREFETCH  REQUESTED:          0  ISSUED:          0  USEFUL:      16987  USELESS:     371474
LLC USEFUL LOAD PREFETCHES:      16987 PREFETCH ISSUED TO LOWER LEVEL:     385389  ACCURACY: 4.40775
LLC TIMELY PREFETCHES:      16987 LATE PREFETCHES: 0 DROPPED PREFETCHES: 0
LLC PREFETCHES SAME FILL-ORIGIN LEVEL: 0 DIFFERENT FILL-ORIGIN LEVEL: 0
LLC AVERAGE MISS LATENCY: 163.97 cycles
LLC RQ	ACCESS:    1048265	FORWARD:          0	MERGED:          0	TO_CACHE:    1048264
LLC WQ	ACCESS:     444940	FORWARD:          1	MERGED:          0	TO_CACHE:     444940
LLC PQ	ACCESS:     466462	FORWARD:          0	MERGED:          0	TO_CACHE:     466462

LLC Dense regions hint to LLC: 0

RAW hits: 817624
Loads Generated: 14875435
Loads sent to L1D: 14057811
Stores Generated: 8476009
Stores sent to L1D: 8476021
Major fault: 0 Minor fault: 33441
Allocated PAGES: 33441

stream: 
stream:times selected: 4298945
stream:pref_filled: 794347
stream:pref_useful: 165905
stream:pref_late: 17640
stream:misses: 153040
stream:misses_by_poll: 0

CS: 
CS:times selected: 57425
CS:pref_filled: 21948
CS:pref_useful: 4847
CS:pref_late: 324
CS:misses: 2084
CS:misses_by_poll: 2

CPLX: 
CPLX:times selected: 4258454
CPLX:pref_filled: 241648
CPLX:pref_useful: 12025
CPLX:pref_late: 1071
CPLX:misses: 494226
CPLX:misses_by_poll: 150

ISB: 
ISB:times selected:37499
ISB:pref_filled: 7663
ISB:pref_useful: 2423
ISB:pref_late: 167
ISB:misses: 4914
ISB:misses_by_poll: 0

NL_L1: 
NL:times selected: 28281
NL:pref_filled: 7147
NL:pref_useful: 1276
NL:pref_late: 137
NL:misses: 5510
NL:misses_by_poll: 0

total selections: 8680604
total_filled: 567900
total_useful: 100858
total_late: 20506
total_polluted: 152
total_misses_after_warmup: 1030780
conflicts: 4583345

test: 2669816

DRAM Statistics
 CHANNEL 0
 RQ ROW_BUFFER_HIT:     148865  ROW_BUFFER_MISS:    1077528
 DBUS_CONGESTED:        766
 WQ ROW_BUFFER_HIT:     139081  ROW_BUFFER_MISS:     240878  FULL:          0

 AVG_CONGESTED_CYCLE: 4
 All warmup complete: 2
Channel 0 Bank busy for read cycles: 0
Channel 0 Bank busy for write cycles: 0
Channel 0
Rank 0
0banks busy for read cycles: 64859294
0banks busy for write cycles: 142489
1banks busy for read cycles: 59413820
1banks busy for write cycles: 22929488
2banks busy for read cycles: 29175829
2banks busy for write cycles: 12219059
3banks busy for read cycles: 9808544
3banks busy for write cycles: 6158614
4banks busy for read cycles: 3380364
4banks busy for write cycles: 2904227
5banks busy for read cycles: 1128484
5banks busy for write cycles: 1291971
6banks busy for read cycles: 335711
6banks busy for write cycles: 503830
7banks busy for read cycles: 77079
7banks busy for write cycles: 182188
8banks busy for read cycles: 20947
8banks busy for write cycles: 49106

CPU 0 Branch Prediction Accuracy: 94.0755% MPKI: 14.2353 Average ROB Occupancy at Mispredict: 26.2714
Branch types
NOT_BRANCH: 37985796 75.9716%
BRANCH_DIRECT_JUMP: 964405 1.92881%
BRANCH_INDIRECT: 140341 0.280682%
BRANCH_CONDITIONAL: 7911981 15.824%
BRANCH_DIRECT_CALL: 1294152 2.5883%
BRANCH_INDIRECT_CALL: 204449 0.408898%
BRANCH_RETURN: 1498606 2.99721%
BRANCH_OTHER: 0 0%

DRAM PAGES: 1048576
Allocated PAGES: 33441
