
*** ChampSim Multicore Out-of-Order Simulator ***

Warmup Instructions: 50000000
Simulation Instructions: 50000000
Number of CPUs: 1
LLC sets: 2048
LLC ways: 16
Off-chip DRAM Size: 4096 MB Channels: 1 Width: 64-bit Data Rate: 6400 MT/s
CPU 0 runs traces/SPEC-CPU2017/471.omnetpp-188B.champsimtrace.xz
.xz
CPU 0 Bimodal branch predictor
BTB has LRU replacement policy
ITLB has LRU replacement policy
DTLB has LRU replacement policy
STLB has LRU replacement policy
L1I has LRU replacement policy
L1D has LRU replacement policy
L2C has LRU replacement policy
LLC has LRU replacement policy
Heartbeat CPU 0 instructions: 10000001 cycles: 3266529 heartbeat IPC: 3.06135 cumulative IPC: 3.06135 (Simulation time: 0 hr 3 min 5 sec) 
Heartbeat CPU 0 instructions: 20000000 cycles: 6497676 heartbeat IPC: 3.09488 cumulative IPC: 3.07802 (Simulation time: 0 hr 6 min 12 sec) 
Heartbeat CPU 0 instructions: 30000000 cycles: 9749025 heartbeat IPC: 3.07565 cumulative IPC: 3.07723 (Simulation time: 0 hr 9 min 30 sec) 
Heartbeat CPU 0 instructions: 40000000 cycles: 12993854 heartbeat IPC: 3.08183 cumulative IPC: 3.07838 (Simulation time: 0 hr 12 min 48 sec) 
Heartbeat CPU 0 instructions: 50000003 cycles: 16229250 heartbeat IPC: 3.09081 cumulative IPC: 3.08086 (Simulation time: 0 hr 16 min 5 sec) 

Warmup complete CPU 0 instructions: 50000003 cycles: 16229250 (Simulation time: 0 hr 16 min 5 sec) 

Heartbeat CPU 0 instructions: 60000000 cycles: 55653944 heartbeat IPC: 0.253648 cumulative IPC: 0.253648 (Simulation time: 0 hr 17 min 29 sec) 
Heartbeat CPU 0 instructions: 70000001 cycles: 93493411 heartbeat IPC: 0.264274 cumulative IPC: 0.258852 (Simulation time: 0 hr 19 min 1 sec) 
Heartbeat CPU 0 instructions: 80000000 cycles: 133719937 heartbeat IPC: 0.248592 cumulative IPC: 0.255339 (Simulation time: 0 hr 20 min 37 sec) 
Heartbeat CPU 0 instructions: 90000003 cycles: 171665800 heartbeat IPC: 0.263533 cumulative IPC: 0.25734 (Simulation time: 0 hr 22 min 7 sec) 
Heartbeat CPU 0 instructions: 100000000 cycles: 210829066 heartbeat IPC: 0.255341 cumulative IPC: 0.256938 (Simulation time: 0 hr 23 min 44 sec) 
Finished CPU 0 instructions: 50000000 cycles: 194599825 cumulative IPC: 0.256938 (Simulation time: 0 hr 23 min 44 sec) 

ChampSim completed all CPUs

Region of Interest Statistics

CPU 0 cumulative IPC: 0.256938 instructions: 50000000 cycles: 194599825
ITLB TOTAL     ACCESS:    8725094  HIT:    8707891  MISS:      17203  HIT %:    99.8028  MISS %:   0.197167   MPKI: 0.34406
ITLB LOAD TRANSLATION ACCESS:    8725094  HIT:    8707891  MISS:      17203  HIT %:    99.8028  MISS %:   0.197167   MPKI: 0.34406
ITLB PREFETCH  REQUESTED:          0  ISSUED:          0  USEFUL:          0  USELESS:          0
ITLB USEFUL LOAD PREFETCHES:          0 PREFETCH ISSUED TO LOWER LEVEL:          0  ACCURACY: -nan
ITLB TIMELY PREFETCHES:          0 LATE PREFETCHES: 0 DROPPED PREFETCHES: 0
ITLB PREFETCHES SAME FILL-ORIGIN LEVEL: 0 DIFFERENT FILL-ORIGIN LEVEL: 0
ITLB AVERAGE MISS LATENCY: 12.8974 cycles
ITLB RQ	ACCESS:    9817291	FORWARD:          0	MERGED:    1084579	TO_CACHE:    8732712

DTLB TOTAL     ACCESS:   14681630  HIT:   13724249  MISS:     957381  HIT %:    93.4791  MISS %:    6.52094   MPKI: 19.1476
DTLB LOAD TRANSLATION ACCESS:   14681630  HIT:   13724249  MISS:     957381  HIT %:    93.4791  MISS %:    6.52094   MPKI: 19.1476
DTLB PREFETCH  REQUESTED:          0  ISSUED:          0  USEFUL:          0  USELESS:          0
DTLB USEFUL LOAD PREFETCHES:          0 PREFETCH ISSUED TO LOWER LEVEL:          0  ACCURACY: -nan
DTLB TIMELY PREFETCHES:          0 LATE PREFETCHES: 0 DROPPED PREFETCHES: 0
DTLB PREFETCHES SAME FILL-ORIGIN LEVEL: 0 DIFFERENT FILL-ORIGIN LEVEL: 0
DTLB AVERAGE MISS LATENCY: 42.8586 cycles
DTLB RQ	ACCESS:   17858866	FORWARD:          0	MERGED:    3126030	TO_CACHE:   14732836

STLB TOTAL     ACCESS:    2507452  HIT:    2287030  MISS:     220422  HIT %:    91.2093  MISS %:    8.79068   MPKI: 4.40844
STLB LOAD TRANSLATION ACCESS:     974584  HIT:     754163  MISS:     220421  HIT %:    77.3831  MISS %:    22.6169   MPKI: 4.40842
STLB TRANSLATION FROM L1D PREFETCHER ACCESS:    1532868  HIT:    1532867  MISS:          1  HIT %:    99.9999  MISS %: 6.52372e-05   MPKI: 2e-05
STLB PREFETCH  REQUESTED:          0  ISSUED:          0  USEFUL:          1  USELESS:          0
STLB USEFUL LOAD PREFETCHES:          1 PREFETCH ISSUED TO LOWER LEVEL:          0  ACCURACY: inf
STLB TIMELY PREFETCHES:          1 LATE PREFETCHES: 0 DROPPED PREFETCHES: 0
STLB PREFETCHES SAME FILL-ORIGIN LEVEL: 0 DIFFERENT FILL-ORIGIN LEVEL: 0
STLB AVERAGE MISS LATENCY: 146.771 cycles
STLB RQ	ACCESS:    2875079	FORWARD:          0	MERGED:     367627	TO_CACHE:    2507452

STLB Hit, L1D data hit: 0
STLB Hit, L2C data hit: 0
STLB Hit, LLC data hit: 0
STLB Hit, LLC data miss: 0
STLB STLB hints to L2: 0
L1D TOTAL     ACCESS:   19218810  HIT:   17540628  MISS:    1678182  HIT %:     91.268  MISS %:    8.73198   MPKI: 33.5636
L1D LOAD      ACCESS:    9483126  HIT:    8549262  MISS:     933864  HIT %:    90.1524  MISS %:    9.84764   MPKI: 18.6773
L1D RFO       ACCESS:    7886301  HIT:    7718674  MISS:     167627  HIT %:    97.8745  MISS %:    2.12555   MPKI: 3.35254
L1D PREFETCH  ACCESS:    1849383  HIT:    1272692  MISS:     576691  HIT %:    68.8171  MISS %:    31.1829   MPKI: 11.5338
AGUS PREFETCH L1 MISS: 0
L1D PREFETCH  REQUESTED:    3801541  ISSUED:    3801091  USEFUL:      99021  USELESS:     477724
L1D USEFUL LOAD PREFETCHES:      99021 PREFETCH ISSUED TO LOWER LEVEL:    1037814  ACCURACY: 9.54131
L1D TIMELY PREFETCHES:      99021 LATE PREFETCHES: 11289 DROPPED PREFETCHES: 0
L1D PREFETCHES SAME FILL-ORIGIN LEVEL: 1037814 DIFFERENT FILL-ORIGIN LEVEL: 0
L1D AVERAGE MISS LATENCY: 121.677 cycles
L1D RQ	ACCESS:   14080208	FORWARD:          0	MERGED:    4065757	TO_CACHE:    9567413
L1D WQ	ACCESS:    8476021	FORWARD:     447139	MERGED:     184568	TO_CACHE:    8291453
L1D PQ	ACCESS:    1900596	FORWARD:          0	MERGED:          0	TO_CACHE:    1900495

L1D UNIQUE REGIONS ACCESSED: 0
L1D REGIONS CONFLICTS: 0
L1D Cross Page Prefetch Requests: 0
L1D Same Page Prefetch Requests: 3679201
L1D ROI Sum of L1D PQ occupancy: 25084160
L1D PREFETCHES PUSHED FROM L2C: 0
L1I TOTAL     ACCESS:    9816992  HIT:    9815451  MISS:       1541  HIT %:    99.9843  MISS %:  0.0156973   MPKI: 0.03082
L1I LOAD      ACCESS:    9816992  HIT:    9815451  MISS:       1541  HIT %:    99.9843  MISS %:  0.0156973   MPKI: 0.03082
L1I PREFETCH  REQUESTED:          0  ISSUED:          0  USEFUL:          0  USELESS:          0
L1I USEFUL LOAD PREFETCHES:          0 PREFETCH ISSUED TO LOWER LEVEL:          0  ACCURACY: -nan
L1I TIMELY PREFETCHES:          0 LATE PREFETCHES: 0 DROPPED PREFETCHES: 0
L1I PREFETCHES SAME FILL-ORIGIN LEVEL: 0 DIFFERENT FILL-ORIGIN LEVEL: 0
L1I AVERAGE MISS LATENCY: 189.465 cycles
L1I RQ	ACCESS:   14783064	FORWARD:          0	MERGED:    4965773	TO_CACHE:    9817291

BTB TOTAL     ACCESS:   10008119  HIT:    9487971  MISS:     520148  HIT %:    94.8027  MISS %:    5.19726   MPKI: 10.403
BTB BRANCH_DIRECT_JUMP	ACCESS:     964405  HIT:     964243  MISS:        162
BTB BRANCH_INDIRECT	ACCESS:     140341  HIT:     116325  MISS:      24016
BTB BRANCH_CONDITIONAL	ACCESS:    5906166  HIT:    5905777  MISS:        389
BTB BRANCH_DIRECT_CALL	ACCESS:    1294152  HIT:    1293861  MISS:        291
BTB BRANCH_INDIRECT_CALL	ACCESS:     204449  HIT:     203146  MISS:       1303
BTB BRANCH_RETURN	ACCESS:    1498606  HIT:    1004619  MISS:     493987
BTB BRANCH_OTHER ACCESS:          0  HIT:          0  MISS:          0

L2C TOTAL     ACCESS:    9464773  HIT:    5504652  MISS:    3960121  HIT %:    58.1594  MISS %:    41.8406   MPKI: 79.2024
L2C LOAD      ACCESS:     924092  HIT:     560106  MISS:     363986  HIT %:    60.6115  MISS %:    39.3885   MPKI: 7.27972
L2C DATA LOAD MPKI: 7.25122
L2C INSTRUCTION LOAD MPKI: 0.0285
L2C RFO       ACCESS:     167049  HIT:      25903  MISS:     141146  HIT %:    15.5062  MISS %:    84.4938   MPKI: 2.82292
L2C PREFETCH  ACCESS:    7641604  HIT:    4318850  MISS:    3322754  HIT %:    56.5176  MISS %:    43.4824   MPKI: 66.4551
AGUS PREFETCH L1 MISS: 0
L2C DATA PREFETCH MPKI: 66.4551
L2C INSTRUCTION PREFETCH MPKI: 0
L2C WRITEBACK ACCESS:     499983  HIT:     489712  MISS:      10271  HIT %:    97.9457  MISS %:    2.05427   MPKI: 0.20542
L2C LOAD TRANSLATION ACCESS:     232043  HIT:     110081  MISS:     121962  HIT %:    47.4399  MISS %:    52.5601   MPKI: 2.43924
L2C TRANSLATION FROM L1D PREFETCHER ACCESS:          2  HIT:          0  MISS:          2  HIT %:          0  MISS %:        100   MPKI: 4e-05
L2C PREFETCH  REQUESTED:    7723805  ISSUED:    7349185  USEFUL:     508316  USELESS:    2813415
L2C USEFUL LOAD PREFETCHES:     508316 PREFETCH ISSUED TO LOWER LEVEL:    3328040  ACCURACY: 15.2737
L2C TIMELY PREFETCHES:     508316 LATE PREFETCHES: 5286 DROPPED PREFETCHES: 0
L2C PREFETCHES SAME FILL-ORIGIN LEVEL: 3014001 DIFFERENT FILL-ORIGIN LEVEL: 0
L2C AVERAGE MISS LATENCY: 248.362 cycles
L2C RQ	ACCESS:    1323210	FORWARD:          0	MERGED:          0	TO_CACHE:    1323186
L2C WQ	ACCESS:     499983	FORWARD:         34	MERGED:          0	TO_CACHE:     499983
L2C PQ	ACCESS:    7937743	FORWARD:          0	MERGED:     134012	TO_CACHE:    7803721

L2C Instructions Evicting Data 1390
L2C Translations Evicting Data 118305
L2C Data Evicting Data 3706338
L2C Instructions Evicting Instructions 9
L2C Translations Evicting Instructions 28
L2C Data Evicting Instructions 1386
L2C Instructions Evicting Translations 26
L2C Translations Evicting Translations 3631
L2C Data Evicting Translations 118737
L2C Dense regions hint from L2: 0
PSCL5 TOTAL     ACCESS:     220422  HIT:     220422  MISS:          0  HIT %:        100  MISS %:          0   MPKI: 0
PSCL5 LOAD TRANSLATION ACCESS:     220421  HIT:     220421  MISS:          0  HIT %:        100  MISS %:          0   MPKI: 0
PSCL5 TRANSLATION FROM L1D PREFETCHER ACCESS:          1  HIT:          1  MISS:          0  HIT %:        100  MISS %:          0   MPKI: 0
PSCL5 PREFETCH  REQUESTED:          0  ISSUED:          0  USEFUL:          0  USELESS:          0
PSCL5 USEFUL LOAD PREFETCHES:          0 PREFETCH ISSUED TO LOWER LEVEL:          0  ACCURACY: -nan
PSCL5 TIMELY PREFETCHES:          0 LATE PREFETCHES: 0 DROPPED PREFETCHES: 0
PSCL5 PREFETCHES SAME FILL-ORIGIN LEVEL: 0 DIFFERENT FILL-ORIGIN LEVEL: 0

PSCL4 TOTAL     ACCESS:     220422  HIT:     220422  MISS:          0  HIT %:        100  MISS %:          0   MPKI: 0
PSCL4 LOAD TRANSLATION ACCESS:     220421  HIT:     220421  MISS:          0  HIT %:        100  MISS %:          0   MPKI: 0
PSCL4 TRANSLATION FROM L1D PREFETCHER ACCESS:          1  HIT:          1  MISS:          0  HIT %:        100  MISS %:          0   MPKI: 0
PSCL4 PREFETCH  REQUESTED:          0  ISSUED:          0  USEFUL:          0  USELESS:          0
PSCL4 USEFUL LOAD PREFETCHES:          0 PREFETCH ISSUED TO LOWER LEVEL:          0  ACCURACY: -nan
PSCL4 TIMELY PREFETCHES:          0 LATE PREFETCHES: 0 DROPPED PREFETCHES: 0
PSCL4 PREFETCHES SAME FILL-ORIGIN LEVEL: 0 DIFFERENT FILL-ORIGIN LEVEL: 0

PSCL3 TOTAL     ACCESS:     220422  HIT:     220422  MISS:          0  HIT %:        100  MISS %:          0   MPKI: 0
PSCL3 LOAD TRANSLATION ACCESS:     220421  HIT:     220421  MISS:          0  HIT %:        100  MISS %:          0   MPKI: 0
PSCL3 TRANSLATION FROM L1D PREFETCHER ACCESS:          1  HIT:          1  MISS:          0  HIT %:        100  MISS %:          0   MPKI: 0
PSCL3 PREFETCH  REQUESTED:          0  ISSUED:          0  USEFUL:          0  USELESS:          0
PSCL3 USEFUL LOAD PREFETCHES:          0 PREFETCH ISSUED TO LOWER LEVEL:          0  ACCURACY: -nan
PSCL3 TIMELY PREFETCHES:          0 LATE PREFETCHES: 0 DROPPED PREFETCHES: 0
PSCL3 PREFETCHES SAME FILL-ORIGIN LEVEL: 0 DIFFERENT FILL-ORIGIN LEVEL: 0

PSCL2 TOTAL     ACCESS:     220422  HIT:     208798  MISS:      11624  HIT %:    94.7265  MISS %:    5.27352   MPKI: 0.23248
PSCL2 LOAD TRANSLATION ACCESS:     220422  HIT:     208798  MISS:      11624  HIT %:    94.7265  MISS %:    5.27352   MPKI: 0.23248
PSCL2 PREFETCH  REQUESTED:          0  ISSUED:          0  USEFUL:          0  USELESS:          0
PSCL2 USEFUL LOAD PREFETCHES:          0 PREFETCH ISSUED TO LOWER LEVEL:          0  ACCURACY: -nan
PSCL2 TIMELY PREFETCHES:          0 LATE PREFETCHES: 0 DROPPED PREFETCHES: 0
PSCL2 PREFETCHES SAME FILL-ORIGIN LEVEL: 0 DIFFERENT FILL-ORIGIN LEVEL: 0

LLC TOTAL     ACCESS:    4417746  HIT:    1372357  MISS:    3045389  HIT %:    31.0646  MISS %:    68.9354   MPKI: 60.9078
LLC LOAD      ACCESS:     359000  HIT:      70292  MISS:     288708  HIT %:    19.5799  MISS %:    80.4201   MPKI: 5.77416
LLC RFO       ACCESS:     140845  HIT:      17921  MISS:     122924  HIT %:    12.7239  MISS %:    87.2761   MPKI: 2.45848
LLC PREFETCH  ACCESS:    3328028  HIT:     771350  MISS:    2556678  HIT %:    23.1774  MISS %:    76.8226   MPKI: 51.1336
AGUS PREFETCH L1 MISS: 0
LLC WRITEBACK ACCESS:     467909  HIT:     464188  MISS:       3721  HIT %:    99.2048  MISS %:    0.79524   MPKI: 0.07442
LLC LOAD TRANSLATION ACCESS:     121962  HIT:      48605  MISS:      73357  HIT %:    39.8526  MISS %:    60.1474   MPKI: 1.46714
LLC TRANSLATION FROM L1D PREFETCHER ACCESS:          2  HIT:          1  MISS:          1  HIT %:         50  MISS %:         50   MPKI: 2e-05
LLC PREFETCH  REQUESTED:          0  ISSUED:          0  USEFUL:      40164  USELESS:    2514770
LLC USEFUL LOAD PREFETCHES:      40164 PREFETCH ISSUED TO LOWER LEVEL:    2556678  ACCURACY: 1.57094
LLC TIMELY PREFETCHES:      40164 LATE PREFETCHES: 0 DROPPED PREFETCHES: 0
LLC PREFETCHES SAME FILL-ORIGIN LEVEL: 0 DIFFERENT FILL-ORIGIN LEVEL: 0
LLC AVERAGE MISS LATENCY: 284.004 cycles
LLC RQ	ACCESS:     621810	FORWARD:          0	MERGED:          0	TO_CACHE:     621809
LLC WQ	ACCESS:     467909	FORWARD:         13	MERGED:          0	TO_CACHE:     467909
LLC PQ	ACCESS:    3328040	FORWARD:          0	MERGED:          0	TO_CACHE:    3328028

LLC Dense regions hint to LLC: 0

RAW hits: 795225
Loads Generated: 14875433
Loads sent to L1D: 14080208
Stores Generated: 8476008
Stores sent to L1D: 8476021
Major fault: 0 Minor fault: 33441
Allocated PAGES: 33441

stream: 
stream:times selected: 4488693
stream:pref_filled: 697511
stream:pref_useful: 141521
stream:pref_late: 19495
stream:misses: 161116
stream:misses_by_poll: 0

CS: 
CS:times selected: 47986
CS:pref_filled: 15401
CS:pref_useful: 1022
CS:pref_late: 114
CS:misses: 1631
CS:misses_by_poll: 0

CPLX: 
CPLX:times selected: 4447284
CPLX:pref_filled: 229034
CPLX:pref_useful: 8441
CPLX:pref_late: 801
CPLX:misses: 491178
CPLX:misses_by_poll: 131

NL_L1: 
NL:times selected: 29234
NL:pref_filled: 5876
NL:pref_useful: 1076
NL:pref_late: 150
NL:misses: 5630
NL:misses_by_poll: 0

total selections: 9013197
total_filled: 576691
total_useful: 99021
total_late: 23772
total_polluted: 131
total_misses_after_warmup: 1018152
conflicts: 4577814

test: 2798617

DRAM Statistics
 CHANNEL 0
 RQ ROW_BUFFER_HIT:     190100  ROW_BUFFER_MISS:    2851362
 DBUS_CONGESTED:        363
 WQ ROW_BUFFER_HIT:      71476  ROW_BUFFER_MISS:     352592  FULL:          0

 AVG_CONGESTED_CYCLE: 4
 All warmup complete: 2
Channel 0 Bank busy for read cycles: 0
Channel 0 Bank busy for write cycles: 0
Channel 0
Rank 0
0banks busy for read cycles: 31025705
0banks busy for write cycles: 67968
1banks busy for read cycles: 36040931
1banks busy for write cycles: 9192105
2banks busy for read cycles: 26777196
2banks busy for write cycles: 5871819
3banks busy for read cycles: 18367475
3banks busy for write cycles: 4239840
4banks busy for read cycles: 13524141
4banks busy for write cycles: 3212943
5banks busy for read cycles: 11880057
5banks busy for write cycles: 2567158
6banks busy for read cycles: 10875134
6banks busy for write cycles: 2032443
7banks busy for read cycles: 9073507
7banks busy for write cycles: 1762564
8banks busy for read cycles: 6293586
8banks busy for write cycles: 1795254

CPU 0 Branch Prediction Accuracy: 94.0755% MPKI: 14.2353 Average ROB Occupancy at Mispredict: 25.6572
Branch types
NOT_BRANCH: 37985796 75.9716%
BRANCH_DIRECT_JUMP: 964405 1.92881%
BRANCH_INDIRECT: 140341 0.280682%
BRANCH_CONDITIONAL: 7911981 15.824%
BRANCH_DIRECT_CALL: 1294152 2.5883%
BRANCH_INDIRECT_CALL: 204449 0.408898%
BRANCH_RETURN: 1498606 2.99721%
BRANCH_OTHER: 0 0%

DRAM PAGES: 1048576
Allocated PAGES: 33441
