
*** ChampSim Multicore Out-of-Order Simulator ***

Warmup Instructions: 50000000
Simulation Instructions: 50000000
Number of CPUs: 1
LLC sets: 2048
LLC ways: 16
Off-chip DRAM Size: 4096 MB Channels: 1 Width: 64-bit Data Rate: 6400 MT/s
CPU 0 runs ./traces/SPEC-CPU2017/482.sphinx3-234B.champsimtrace.xz
.xz
CPU 0 Bimodal branch predictor
BTB has LRU replacement policy
ITLB has LRU replacement policy
DTLB has LRU replacement policy
STLB has LRU replacement policy
L1I has LRU replacement policy
L1D has LRU replacement policy
L2C has LRU replacement policy
LLC has LRU replacement policy
Heartbeat CPU 0 instructions: 10000000 cycles: 3092757 heartbeat IPC: 3.23336 cumulative IPC: 3.23336 (Simulation time: 0 hr 3 min 3 sec) 
Heartbeat CPU 0 instructions: 20000000 cycles: 6188118 heartbeat IPC: 3.23064 cumulative IPC: 3.232 (Simulation time: 0 hr 6 min 6 sec) 
Heartbeat CPU 0 instructions: 30000001 cycles: 9280978 heartbeat IPC: 3.23325 cumulative IPC: 3.23242 (Simulation time: 0 hr 9 min 4 sec) 
Heartbeat CPU 0 instructions: 40000000 cycles: 12411654 heartbeat IPC: 3.1942 cumulative IPC: 3.22278 (Simulation time: 0 hr 12 min 12 sec) 
Heartbeat CPU 0 instructions: 50000000 cycles: 15458719 heartbeat IPC: 3.28185 cumulative IPC: 3.23442 (Simulation time: 0 hr 15 min 11 sec) 

Warmup complete CPU 0 instructions: 50000004 cycles: 15458720 (Simulation time: 0 hr 15 min 11 sec) 

Heartbeat CPU 0 instructions: 60000000 cycles: 28319269 heartbeat IPC: 0.777572 cumulative IPC: 0.777571 (Simulation time: 0 hr 15 min 45 sec) 
Heartbeat CPU 0 instructions: 70000001 cycles: 40153340 heartbeat IPC: 0.845018 cumulative IPC: 0.809893 (Simulation time: 0 hr 16 min 17 sec) 
Heartbeat CPU 0 instructions: 80000000 cycles: 51868863 heartbeat IPC: 0.853568 cumulative IPC: 0.823946 (Simulation time: 0 hr 16 min 50 sec) 
Heartbeat CPU 0 instructions: 90000000 cycles: 63878252 heartbeat IPC: 0.832682 cumulative IPC: 0.826113 (Simulation time: 0 hr 17 min 23 sec) 
Heartbeat CPU 0 instructions: 100000000 cycles: 76732284 heartbeat IPC: 0.777966 cumulative IPC: 0.816013 (Simulation time: 0 hr 17 min 57 sec) 
Finished CPU 0 instructions: 50000000 cycles: 61273581 cumulative IPC: 0.816012 (Simulation time: 0 hr 17 min 57 sec) 

ChampSim completed all CPUs

Region of Interest Statistics

CPU 0 cumulative IPC: 0.816012 instructions: 50000000 cycles: 61273581
ITLB TOTAL     ACCESS:    9687088  HIT:    9687088  MISS:          0  HIT %:        100  MISS %:          0   MPKI: 0
ITLB LOAD TRANSLATION ACCESS:    9687088  HIT:    9687088  MISS:          0  HIT %:        100  MISS %:          0   MPKI: 0
ITLB PREFETCH  REQUESTED:          0  ISSUED:          0  USEFUL:          0  USELESS:          0
ITLB USEFUL LOAD PREFETCHES:          0 PREFETCH ISSUED TO LOWER LEVEL:          0  ACCURACY: -nan
ITLB TIMELY PREFETCHES:          0 LATE PREFETCHES: 0 DROPPED PREFETCHES: 0
ITLB PREFETCHES SAME FILL-ORIGIN LEVEL: 0 DIFFERENT FILL-ORIGIN LEVEL: 0
ITLB AVERAGE MISS LATENCY: -nan cycles
ITLB RQ	ACCESS:   10491257	FORWARD:          0	MERGED:     804169	TO_CACHE:    9687088

DTLB TOTAL     ACCESS:    9103517  HIT:    9041689  MISS:      61828  HIT %:    99.3208  MISS %:   0.679166   MPKI: 1.23656
DTLB LOAD TRANSLATION ACCESS:    9103517  HIT:    9041689  MISS:      61828  HIT %:    99.3208  MISS %:   0.679166   MPKI: 1.23656
DTLB PREFETCH  REQUESTED:          0  ISSUED:          0  USEFUL:          0  USELESS:          0
DTLB USEFUL LOAD PREFETCHES:          0 PREFETCH ISSUED TO LOWER LEVEL:          0  ACCURACY: -nan
DTLB TIMELY PREFETCHES:          0 LATE PREFETCHES: 0 DROPPED PREFETCHES: 0
DTLB PREFETCHES SAME FILL-ORIGIN LEVEL: 0 DIFFERENT FILL-ORIGIN LEVEL: 0
DTLB AVERAGE MISS LATENCY: 34.3934 cycles
DTLB RQ	ACCESS:   10117307	FORWARD:          0	MERGED:    1002609	TO_CACHE:    9114698

STLB TOTAL     ACCESS:     759100  HIT:     740160  MISS:      18940  HIT %:    97.5049  MISS %:    2.49506   MPKI: 0.3788
STLB LOAD TRANSLATION ACCESS:      61828  HIT:      42888  MISS:      18940  HIT %:    69.3666  MISS %:    30.6334   MPKI: 0.3788
STLB TRANSLATION FROM L1D PREFETCHER ACCESS:     697272  HIT:     697272  MISS:          0  HIT %:        100  MISS %:          0   MPKI: 0
STLB PREFETCH  REQUESTED:          0  ISSUED:          0  USEFUL:          0  USELESS:          0
STLB USEFUL LOAD PREFETCHES:          0 PREFETCH ISSUED TO LOWER LEVEL:          0  ACCURACY: -nan
STLB TIMELY PREFETCHES:          0 LATE PREFETCHES: 0 DROPPED PREFETCHES: 0
STLB PREFETCHES SAME FILL-ORIGIN LEVEL: 0 DIFFERENT FILL-ORIGIN LEVEL: 0
STLB AVERAGE MISS LATENCY: 82.7414 cycles
STLB RQ	ACCESS:     951073	FORWARD:          0	MERGED:     191972	TO_CACHE:     759101

STLB Hit, L1D data hit: 0
STLB Hit, L2C data hit: 0
STLB Hit, LLC data hit: 0
STLB Hit, LLC data miss: 0
STLB STLB hints to L2: 0
L1D TOTAL     ACCESS:   10726519  HIT:    9870854  MISS:     855665  HIT %:    92.0229  MISS %:     7.9771   MPKI: 17.1133
L1D LOAD      ACCESS:    9178672  HIT:    8977982  MISS:     200690  HIT %:    97.8135  MISS %:    2.18648   MPKI: 4.0138
L1D RFO       ACCESS:     687840  HIT:     653691  MISS:      34149  HIT %:    95.0353  MISS %:    4.96467   MPKI: 0.68298
L1D PREFETCH  ACCESS:     860007  HIT:     239181  MISS:     620826  HIT %:    27.8115  MISS %:    72.1885   MPKI: 12.4165
AGUS PREFETCH L1 MISS: 0
L1D PREFETCH  REQUESTED:    1779428  ISSUED:    1778493  USEFUL:     484266  USELESS:     136565
L1D USEFUL LOAD PREFETCHES:     484266 PREFETCH ISSUED TO LOWER LEVEL:     640150  ACCURACY: 75.6488
L1D TIMELY PREFETCHES:     484266 LATE PREFETCHES: 19317 DROPPED PREFETCHES: 0
L1D PREFETCHES SAME FILL-ORIGIN LEVEL: 640150 DIFFERENT FILL-ORIGIN LEVEL: 0
L1D AVERAGE MISS LATENCY: 72.3151 cycles
L1D RQ	ACCESS:   12888980	FORWARD:          0	MERGED:    3617780	TO_CACHE:    9260468
L1D WQ	ACCESS:     858601	FORWARD:      10735	MERGED:       1762	TO_CACHE:     856839
L1D PQ	ACCESS:     889248	FORWARD:          0	MERGED:          0	TO_CACHE:     889245

L1D UNIQUE REGIONS ACCESSED: 0
L1D REGIONS CONFLICTS: 0
L1D Cross Page Prefetch Requests: 0
L1D Same Page Prefetch Requests: 1913669
L1D ROI Sum of L1D PQ occupancy: 11626839
L1D PREFETCHES PUSHED FROM L2C: 0
L1I TOTAL     ACCESS:   10491255  HIT:   10491255  MISS:          0  HIT %:        100  MISS %:          0   MPKI: 0
L1I LOAD      ACCESS:   10491255  HIT:   10491255  MISS:          0  HIT %:        100  MISS %:          0   MPKI: 0
L1I PREFETCH  REQUESTED:          0  ISSUED:          0  USEFUL:          0  USELESS:          0
L1I USEFUL LOAD PREFETCHES:          0 PREFETCH ISSUED TO LOWER LEVEL:          0  ACCURACY: -nan
L1I TIMELY PREFETCHES:          0 LATE PREFETCHES: 0 DROPPED PREFETCHES: 0
L1I PREFETCHES SAME FILL-ORIGIN LEVEL: 0 DIFFERENT FILL-ORIGIN LEVEL: 0
L1I AVERAGE MISS LATENCY: -nan cycles
L1I RQ	ACCESS:   12682275	FORWARD:          0	MERGED:    2191018	TO_CACHE:   10491257

BTB TOTAL     ACCESS:    4309219  HIT:    4298926  MISS:      10293  HIT %:    99.7611  MISS %:    0.23886   MPKI: 0.20586
BTB BRANCH_DIRECT_JUMP	ACCESS:      86243  HIT:      86192  MISS:         51
BTB BRANCH_INDIRECT	ACCESS:          0  HIT:          0  MISS:          0
BTB BRANCH_CONDITIONAL	ACCESS:    4052258  HIT:    4052079  MISS:        179
BTB BRANCH_DIRECT_CALL	ACCESS:      85360  HIT:      85282  MISS:         78
BTB BRANCH_INDIRECT_CALL	ACCESS:          0  HIT:          0  MISS:          0
BTB BRANCH_RETURN	ACCESS:      85358  HIT:      75373  MISS:       9985
BTB BRANCH_OTHER ACCESS:          0  HIT:          0  MISS:          0

L2C TOTAL     ACCESS:    1808924  HIT:    1118982  MISS:     689942  HIT %:     61.859  MISS %:     38.141   MPKI: 13.7988
L2C LOAD      ACCESS:     181372  HIT:      92585  MISS:      88787  HIT %:     51.047  MISS %:     48.953   MPKI: 1.77574
L2C DATA LOAD MPKI: 1.77574
L2C INSTRUCTION LOAD MPKI: 0
L2C RFO       ACCESS:      34143  HIT:       2536  MISS:      31607  HIT %:    7.42758  MISS %:    92.5724   MPKI: 0.63214
L2C PREFETCH  ACCESS:    1532152  HIT:     967150  MISS:     565002  HIT %:    63.1236  MISS %:    36.8764   MPKI: 11.3
AGUS PREFETCH L1 MISS: 0
L2C DATA PREFETCH MPKI: 11.3
L2C INSTRUCTION PREFETCH MPKI: 0
L2C WRITEBACK ACCESS:      42317  HIT:      42193  MISS:        124  HIT %:     99.707  MISS %:   0.293026   MPKI: 0.00248
L2C LOAD TRANSLATION ACCESS:      18940  HIT:      14518  MISS:       4422  HIT %:    76.6526  MISS %:    23.3474   MPKI: 0.08844
L2C PREFETCH  REQUESTED:    1096901  ISSUED:    1096901  USEFUL:      12044  USELESS:     553129
L2C USEFUL LOAD PREFETCHES:      12044 PREFETCH ISSUED TO LOWER LEVEL:     565160  ACCURACY: 2.13108
L2C TIMELY PREFETCHES:      12044 LATE PREFETCHES: 158 DROPPED PREFETCHES: 0
L2C PREFETCHES SAME FILL-ORIGIN LEVEL: 365299 DIFFERENT FILL-ORIGIN LEVEL: 0
L2C AVERAGE MISS LATENCY: 149.469 cycles
L2C RQ	ACCESS:     234456	FORWARD:          0	MERGED:          0	TO_CACHE:     234455
L2C WQ	ACCESS:      42317	FORWARD:          1	MERGED:          0	TO_CACHE:      42317
L2C PQ	ACCESS:    1737051	FORWARD:          0	MERGED:     116094	TO_CACHE:    1620957

L2C Instructions Evicting Data 0
L2C Translations Evicting Data 4395
L2C Data Evicting Data 680990
L2C Instructions Evicting Instructions 0
L2C Translations Evicting Instructions 0
L2C Data Evicting Instructions 0
L2C Instructions Evicting Translations 0
L2C Translations Evicting Translations 27
L2C Data Evicting Translations 4406
L2C Dense regions hint from L2: 0
PSCL5 TOTAL     ACCESS:      18940  HIT:      18940  MISS:          0  HIT %:        100  MISS %:          0   MPKI: 0
PSCL5 LOAD TRANSLATION ACCESS:      18940  HIT:      18940  MISS:          0  HIT %:        100  MISS %:          0   MPKI: 0
PSCL5 PREFETCH  REQUESTED:          0  ISSUED:          0  USEFUL:          0  USELESS:          0
PSCL5 USEFUL LOAD PREFETCHES:          0 PREFETCH ISSUED TO LOWER LEVEL:          0  ACCURACY: -nan
PSCL5 TIMELY PREFETCHES:          0 LATE PREFETCHES: 0 DROPPED PREFETCHES: 0
PSCL5 PREFETCHES SAME FILL-ORIGIN LEVEL: 0 DIFFERENT FILL-ORIGIN LEVEL: 0

PSCL4 TOTAL     ACCESS:      18940  HIT:      18940  MISS:          0  HIT %:        100  MISS %:          0   MPKI: 0
PSCL4 LOAD TRANSLATION ACCESS:      18940  HIT:      18940  MISS:          0  HIT %:        100  MISS %:          0   MPKI: 0
PSCL4 PREFETCH  REQUESTED:          0  ISSUED:          0  USEFUL:          0  USELESS:          0
PSCL4 USEFUL LOAD PREFETCHES:          0 PREFETCH ISSUED TO LOWER LEVEL:          0  ACCURACY: -nan
PSCL4 TIMELY PREFETCHES:          0 LATE PREFETCHES: 0 DROPPED PREFETCHES: 0
PSCL4 PREFETCHES SAME FILL-ORIGIN LEVEL: 0 DIFFERENT FILL-ORIGIN LEVEL: 0

PSCL3 TOTAL     ACCESS:      18940  HIT:      18940  MISS:          0  HIT %:        100  MISS %:          0   MPKI: 0
PSCL3 LOAD TRANSLATION ACCESS:      18940  HIT:      18940  MISS:          0  HIT %:        100  MISS %:          0   MPKI: 0
PSCL3 PREFETCH  REQUESTED:          0  ISSUED:          0  USEFUL:          0  USELESS:          0
PSCL3 USEFUL LOAD PREFETCHES:          0 PREFETCH ISSUED TO LOWER LEVEL:          0  ACCURACY: -nan
PSCL3 TIMELY PREFETCHES:          0 LATE PREFETCHES: 0 DROPPED PREFETCHES: 0
PSCL3 PREFETCHES SAME FILL-ORIGIN LEVEL: 0 DIFFERENT FILL-ORIGIN LEVEL: 0

PSCL2 TOTAL     ACCESS:      18940  HIT:      18940  MISS:          0  HIT %:        100  MISS %:          0   MPKI: 0
PSCL2 LOAD TRANSLATION ACCESS:      18940  HIT:      18940  MISS:          0  HIT %:        100  MISS %:          0   MPKI: 0
PSCL2 PREFETCH  REQUESTED:          0  ISSUED:          0  USEFUL:          0  USELESS:          0
PSCL2 USEFUL LOAD PREFETCHES:          0 PREFETCH ISSUED TO LOWER LEVEL:          0  ACCURACY: -nan
PSCL2 TIMELY PREFETCHES:          0 LATE PREFETCHES: 0 DROPPED PREFETCHES: 0
PSCL2 PREFETCHES SAME FILL-ORIGIN LEVEL: 0 DIFFERENT FILL-ORIGIN LEVEL: 0

LLC TOTAL     ACCESS:     728053  HIT:      67856  MISS:     660197  HIT %:     9.3202  MISS %:    90.6798   MPKI: 13.2039
LLC LOAD      ACCESS:      88629  HIT:      11676  MISS:      76953  HIT %:     13.174  MISS %:     86.826   MPKI: 1.53906
LLC RFO       ACCESS:      31607  HIT:       4728  MISS:      26879  HIT %:    14.9587  MISS %:    85.0413   MPKI: 0.53758
LLC PREFETCH  ACCESS:     565160  HIT:      14525  MISS:     550635  HIT %:    2.57007  MISS %:    97.4299   MPKI: 11.0127
AGUS PREFETCH L1 MISS: 0
LLC WRITEBACK ACCESS:      38235  HIT:      36782  MISS:       1453  HIT %:    96.1998  MISS %:    3.80018   MPKI: 0.02906
LLC LOAD TRANSLATION ACCESS:       4422  HIT:        145  MISS:       4277  HIT %:    3.27906  MISS %:    96.7209   MPKI: 0.08554
LLC PREFETCH  REQUESTED:          0  ISSUED:          0  USEFUL:       5202  USELESS:     547528
LLC USEFUL LOAD PREFETCHES:       5202 PREFETCH ISSUED TO LOWER LEVEL:     550635  ACCURACY: 0.944727
LLC TIMELY PREFETCHES:       5202 LATE PREFETCHES: 0 DROPPED PREFETCHES: 0
LLC PREFETCHES SAME FILL-ORIGIN LEVEL: 0 DIFFERENT FILL-ORIGIN LEVEL: 0
LLC AVERAGE MISS LATENCY: 124.856 cycles
LLC RQ	ACCESS:     124658	FORWARD:          0	MERGED:          0	TO_CACHE:     124658
LLC WQ	ACCESS:      38235	FORWARD:          0	MERGED:          0	TO_CACHE:      38235
LLC PQ	ACCESS:     565160	FORWARD:          0	MERGED:          0	TO_CACHE:     565160

LLC Dense regions hint to LLC: 0

RAW hits: 56755
Loads Generated: 12945735
Loads sent to L1D: 12888980
Stores Generated: 858600
Stores sent to L1D: 858601
Major fault: 0 Minor fault: 4120
Allocated PAGES: 4120

stream: 
stream:times selected: 2448505
stream:pref_filled: 399955
stream:pref_useful: 183583
stream:pref_late: 15703
stream:misses: 82125
stream:misses_by_poll: 0

CS: 
CS:times selected: 1256839
CS:pref_filled: 870959
CS:pref_useful: 803603
CS:pref_late: 2341
CS:misses: 59697
CS:misses_by_poll: 1320

CPLX: 
CPLX:times selected: 1183998
CPLX:pref_filled: 29266
CPLX:pref_useful: 7057
CPLX:pref_late: 295
CPLX:misses: 263335
CPLX:misses_by_poll: 23

NL_L1: 
NL:times selected: 3402
NL:pref_filled: 1216
NL:pref_useful: 406
NL:pref_late: 7
NL:misses: 2182
NL:misses_by_poll: 1

total selections: 4892744
total_filled: 620826
total_useful: 484266
total_late: 22174
total_polluted: 1344
total_misses_after_warmup: 282486
conflicts: 302340

test: 615738

DRAM Statistics
 CHANNEL 0
 RQ ROW_BUFFER_HIT:     413743  ROW_BUFFER_MISS:     244988
 DBUS_CONGESTED:       1373
 WQ ROW_BUFFER_HIT:      14087  ROW_BUFFER_MISS:      22217  FULL:          0

 AVG_CONGESTED_CYCLE: 4
 All warmup complete: 2
Channel 0 Bank busy for read cycles: 0
Channel 0 Bank busy for write cycles: 0
Channel 0
Rank 0
0banks busy for read cycles: 24503315
0banks busy for write cycles: 12866
1banks busy for read cycles: 18449778
1banks busy for write cycles: 2267398
2banks busy for read cycles: 7991199
2banks busy for write cycles: 942265
3banks busy for read cycles: 2909785
3banks busy for write cycles: 492398
4banks busy for read cycles: 1552972
4banks busy for write cycles: 281924
5banks busy for read cycles: 738752
5banks busy for write cycles: 178654
6banks busy for read cycles: 550888
6banks busy for write cycles: 109148
7banks busy for read cycles: 121698
7banks busy for write cycles: 76415
8banks busy for read cycles: 27302
8banks busy for write cycles: 66825

CPU 0 Branch Prediction Accuracy: 95.9006% MPKI: 3.75384 Average ROB Occupancy at Mispredict: 50.6314
Branch types
NOT_BRANCH: 45421448 90.8429%
BRANCH_DIRECT_JUMP: 86243 0.172486%
BRANCH_INDIRECT: 0 0%
BRANCH_CONDITIONAL: 4321570 8.64314%
BRANCH_DIRECT_CALL: 85360 0.17072%
BRANCH_INDIRECT_CALL: 0 0%
BRANCH_RETURN: 85358 0.170716%
BRANCH_OTHER: 0 0%

DRAM PAGES: 1048576
Allocated PAGES: 4120
