
*** ChampSim Multicore Out-of-Order Simulator ***

Warmup Instructions: 50000000
Simulation Instructions: 50000000
Number of CPUs: 1
LLC sets: 2048
LLC ways: 16
Off-chip DRAM Size: 4096 MB Channels: 1 Width: 64-bit Data Rate: 6400 MT/s
CPU 0 runs ./traces/SPEC-CPU2017/482.sphinx3-234B.champsimtrace.xz
.xz
CPU 0 Bimodal branch predictor
BTB has LRU replacement policy
ITLB has LRU replacement policy
DTLB has LRU replacement policy
STLB has LRU replacement policy
L1I has LRU replacement policy
L1D has LRU replacement policy
L2C has LRU replacement policy
LLC has LRU replacement policy
Heartbeat CPU 0 instructions: 10000000 cycles: 3094255 heartbeat IPC: 3.2318 cumulative IPC: 3.2318 (Simulation time: 0 hr 0 min 59 sec) 
Heartbeat CPU 0 instructions: 20000000 cycles: 6189975 heartbeat IPC: 3.23027 cumulative IPC: 3.23103 (Simulation time: 0 hr 1 min 58 sec) 
Heartbeat CPU 0 instructions: 30000001 cycles: 9282062 heartbeat IPC: 3.23406 cumulative IPC: 3.23204 (Simulation time: 0 hr 3 min 0 sec) 
Heartbeat CPU 0 instructions: 40000000 cycles: 12412430 heartbeat IPC: 3.19451 cumulative IPC: 3.22258 (Simulation time: 0 hr 4 min 3 sec) 
Heartbeat CPU 0 instructions: 50000000 cycles: 15460148 heartbeat IPC: 3.28114 cumulative IPC: 3.23412 (Simulation time: 0 hr 5 min 9 sec) 

Warmup complete CPU 0 instructions: 50000004 cycles: 15460149 (Simulation time: 0 hr 5 min 9 sec) 

Heartbeat CPU 0 instructions: 60000000 cycles: 28732123 heartbeat IPC: 0.753467 cumulative IPC: 0.753467 (Simulation time: 0 hr 6 min 33 sec) 
Heartbeat CPU 0 instructions: 70000001 cycles: 41402858 heartbeat IPC: 0.78922 cumulative IPC: 0.770929 (Simulation time: 0 hr 7 min 55 sec) 
Heartbeat CPU 0 instructions: 80000000 cycles: 54004688 heartbeat IPC: 0.793535 cumulative IPC: 0.77832 (Simulation time: 0 hr 9 min 17 sec) 
Heartbeat CPU 0 instructions: 90000001 cycles: 66825007 heartbeat IPC: 0.780012 cumulative IPC: 0.778742 (Simulation time: 0 hr 10 min 40 sec) 
Heartbeat CPU 0 instructions: 100000000 cycles: 80262039 heartbeat IPC: 0.744212 cumulative IPC: 0.771582 (Simulation time: 0 hr 12 min 7 sec) 
Finished CPU 0 instructions: 50000000 cycles: 64802022 cumulative IPC: 0.771581 (Simulation time: 0 hr 12 min 7 sec) 

ChampSim completed all CPUs

Region of Interest Statistics

CPU 0 cumulative IPC: 0.771581 instructions: 50000000 cycles: 64802022
ITLB TOTAL     ACCESS:    9693742  HIT:    9693742  MISS:          0  HIT %:        100  MISS %:          0   MPKI: 0
ITLB LOAD TRANSLATION ACCESS:    9693742  HIT:    9693742  MISS:          0  HIT %:        100  MISS %:          0   MPKI: 0
ITLB PREFETCH  REQUESTED:          0  ISSUED:          0  USEFUL:          0  USELESS:          0
ITLB USEFUL LOAD PREFETCHES:          0 PREFETCH ISSUED TO LOWER LEVEL:          0  ACCURACY: -nan
ITLB TIMELY PREFETCHES:          0 LATE PREFETCHES: 0 DROPPED PREFETCHES: 0
ITLB PREFETCHES SAME FILL-ORIGIN LEVEL: 0 DIFFERENT FILL-ORIGIN LEVEL: 0
ITLB AVERAGE MISS LATENCY: -nan cycles
ITLB RQ	ACCESS:   10500199	FORWARD:          0	MERGED:     806456	TO_CACHE:    9693743

DTLB TOTAL     ACCESS:    8412404  HIT:    8350507  MISS:      61897  HIT %:    99.2642  MISS %:   0.735783   MPKI: 1.23794
DTLB LOAD TRANSLATION ACCESS:    8412404  HIT:    8350507  MISS:      61897  HIT %:    99.2642  MISS %:   0.735783   MPKI: 1.23794
DTLB PREFETCH  REQUESTED:          0  ISSUED:          0  USEFUL:          0  USELESS:          0
DTLB USEFUL LOAD PREFETCHES:          0 PREFETCH ISSUED TO LOWER LEVEL:          0  ACCURACY: -nan
DTLB TIMELY PREFETCHES:          0 LATE PREFETCHES: 0 DROPPED PREFETCHES: 0
DTLB PREFETCHES SAME FILL-ORIGIN LEVEL: 0 DIFFERENT FILL-ORIGIN LEVEL: 0
DTLB AVERAGE MISS LATENCY: 19.4567 cycles
DTLB RQ	ACCESS:    9268904	FORWARD:          0	MERGED:     845870	TO_CACHE:    8423034

STLB TOTAL     ACCESS:     396989  HIT:     375640  MISS:      21349  HIT %:    94.6223  MISS %:    5.37773   MPKI: 0.42698
STLB LOAD TRANSLATION ACCESS:      61897  HIT:      56263  MISS:       5634  HIT %:    90.8978  MISS %:    9.10222   MPKI: 0.11268
STLB TRANSLATION FROM L1D PREFETCHER ACCESS:     335092  HIT:     319377  MISS:      15715  HIT %:    95.3102  MISS %:    4.68976   MPKI: 0.3143
STLB PREFETCH  REQUESTED:          0  ISSUED:          0  USEFUL:      14093  USELESS:       1569
STLB USEFUL LOAD PREFETCHES:      14093 PREFETCH ISSUED TO LOWER LEVEL:          0  ACCURACY: inf
STLB TIMELY PREFETCHES:      14093 LATE PREFETCHES: 5 DROPPED PREFETCHES: 0
STLB PREFETCHES SAME FILL-ORIGIN LEVEL: 0 DIFFERENT FILL-ORIGIN LEVEL: 0
STLB AVERAGE MISS LATENCY: 80.2171 cycles
STLB RQ	ACCESS:     849501	FORWARD:          0	MERGED:     452485	TO_CACHE:     397016

STLB Hit, L1D data hit: 0
STLB Hit, L2C data hit: 0
STLB Hit, LLC data hit: 0
STLB Hit, LLC data miss: 0
STLB STLB hints to L2: 0
L1D TOTAL     ACCESS:    9401874  HIT:    8474768  MISS:     927106  HIT %:    90.1391  MISS %:    9.86086   MPKI: 18.5421
L1D LOAD      ACCESS:    7942190  HIT:    7660237  MISS:     281953  HIT %:    96.4499  MISS %:    3.55007   MPKI: 5.63906
L1D RFO       ACCESS:     690173  HIT:     656097  MISS:      34076  HIT %:    95.0627  MISS %:    4.93731   MPKI: 0.68152
L1D PREFETCH  ACCESS:     769511  HIT:     158434  MISS:     611077  HIT %:    20.5889  MISS %:    79.4111   MPKI: 12.2215
AGUS PREFETCH L1 MISS: 0
L1D PREFETCH  REQUESTED:    1685028  ISSUED:    1586432  USEFUL:     405904  USELESS:     205201
L1D USEFUL LOAD PREFETCHES:     405904 PREFETCH ISSUED TO LOWER LEVEL:     618296  ACCURACY: 65.6488
L1D TIMELY PREFETCHES:     405904 LATE PREFETCHES: 7205 DROPPED PREFETCHES: 0
L1D PREFETCHES SAME FILL-ORIGIN LEVEL: 618296 DIFFERENT FILL-ORIGIN LEVEL: 0
L1D AVERAGE MISS LATENCY: 125.87 cycles
L1D RQ	ACCESS:   12888780	FORWARD:          0	MERGED:    4465703	TO_CACHE:    8412087
L1D WQ	ACCESS:     858601	FORWARD:      10990	MERGED:       1784	TO_CACHE:     856817
L1D PQ	ACCESS:     798828	FORWARD:          0	MERGED:      11224	TO_CACHE:     787604

L1D UNIQUE REGIONS ACCESSED: 0
L1D REGIONS CONFLICTS: 0
L1D Cross Page Prefetch Requests: 359531
L1D Same Page Prefetch Requests: 1251719
L1D ROI Sum of L1D PQ occupancy: 14395503
L1D PREFETCHES PUSHED FROM L2C: 0
L1I TOTAL     ACCESS:   10500197  HIT:   10500197  MISS:          0  HIT %:        100  MISS %:          0   MPKI: 0
L1I LOAD      ACCESS:   10500197  HIT:   10500197  MISS:          0  HIT %:        100  MISS %:          0   MPKI: 0
L1I PREFETCH  REQUESTED:          0  ISSUED:          0  USEFUL:          0  USELESS:          0
L1I USEFUL LOAD PREFETCHES:          0 PREFETCH ISSUED TO LOWER LEVEL:          0  ACCURACY: -nan
L1I TIMELY PREFETCHES:          0 LATE PREFETCHES: 0 DROPPED PREFETCHES: 0
L1I PREFETCHES SAME FILL-ORIGIN LEVEL: 0 DIFFERENT FILL-ORIGIN LEVEL: 0
L1I AVERAGE MISS LATENCY: -nan cycles
L1I RQ	ACCESS:   12692485	FORWARD:          0	MERGED:    2192286	TO_CACHE:   10500199

BTB TOTAL     ACCESS:    4309234  HIT:    4298941  MISS:      10293  HIT %:    99.7611  MISS %:   0.238859   MPKI: 0.20586
BTB BRANCH_DIRECT_JUMP	ACCESS:      86244  HIT:      86193  MISS:         51
BTB BRANCH_INDIRECT	ACCESS:          0  HIT:          0  MISS:          0
BTB BRANCH_CONDITIONAL	ACCESS:    4052270  HIT:    4052091  MISS:        179
BTB BRANCH_DIRECT_CALL	ACCESS:      85361  HIT:      85283  MISS:         78
BTB BRANCH_INDIRECT_CALL	ACCESS:          0  HIT:          0  MISS:          0
BTB BRANCH_RETURN	ACCESS:      85359  HIT:      75374  MISS:       9985
BTB BRANCH_OTHER ACCESS:          0  HIT:          0  MISS:          0

L2C TOTAL     ACCESS:     990804  HIT:     303182  MISS:     687622  HIT %:    30.5996  MISS %:    69.4004   MPKI: 13.7524
L2C LOAD      ACCESS:     274746  HIT:      97409  MISS:     177337  HIT %:    35.4542  MISS %:    64.5458   MPKI: 3.54674
L2C DATA LOAD MPKI: 3.54674
L2C INSTRUCTION LOAD MPKI: 0
L2C RFO       ACCESS:      34061  HIT:       2563  MISS:      31498  HIT %:    7.52474  MISS %:    92.4753   MPKI: 0.62996
L2C PREFETCH  ACCESS:     618295  HIT:     144304  MISS:     473991  HIT %:     23.339  MISS %:     76.661   MPKI: 9.47982
AGUS PREFETCH L1 MISS: 0
L2C DATA PREFETCH MPKI: 9.47982
L2C INSTRUCTION PREFETCH MPKI: 0
L2C WRITEBACK ACCESS:      42353  HIT:      42229  MISS:        124  HIT %:    99.7072  MISS %:   0.292777   MPKI: 0.00248
L2C LOAD TRANSLATION ACCESS:       5629  HIT:       3700  MISS:       1929  HIT %:     65.731  MISS %:     34.269   MPKI: 0.03858
L2C TRANSLATION FROM L1D PREFETCHER ACCESS:      15720  HIT:      12977  MISS:       2743  HIT %:    82.5509  MISS %:    17.4491   MPKI: 0.05486
L2C PREFETCH  REQUESTED:          0  ISSUED:          0  USEFUL:      16201  USELESS:     460649
L2C USEFUL LOAD PREFETCHES:      16201 PREFETCH ISSUED TO LOWER LEVEL:     473991  ACCURACY: 3.418
L2C TIMELY PREFETCHES:      16201 LATE PREFETCHES: 0 DROPPED PREFETCHES: 0
L2C PREFETCHES SAME FILL-ORIGIN LEVEL: 0 DIFFERENT FILL-ORIGIN LEVEL: 0
L2C AVERAGE MISS LATENCY: 150.18 cycles
L2C RQ	ACCESS:     330159	FORWARD:          0	MERGED:          0	TO_CACHE:     330156
L2C WQ	ACCESS:      42353	FORWARD:          4	MERGED:          0	TO_CACHE:      42353
L2C PQ	ACCESS:     618296	FORWARD:          0	MERGED:          0	TO_CACHE:     618295

L2C Instructions Evicting Data 0
L2C Translations Evicting Data 4652
L2C Data Evicting Data 678178
L2C Instructions Evicting Instructions 0
L2C Translations Evicting Instructions 0
L2C Data Evicting Instructions 0
L2C Instructions Evicting Translations 0
L2C Translations Evicting Translations 20
L2C Data Evicting Translations 4648
L2C Dense regions hint from L2: 0
PSCL5 TOTAL     ACCESS:      21349  HIT:      21349  MISS:          0  HIT %:        100  MISS %:          0   MPKI: 0
PSCL5 LOAD TRANSLATION ACCESS:       5629  HIT:       5629  MISS:          0  HIT %:        100  MISS %:          0   MPKI: 0
PSCL5 TRANSLATION FROM L1D PREFETCHER ACCESS:      15720  HIT:      15720  MISS:          0  HIT %:        100  MISS %:          0   MPKI: 0
PSCL5 PREFETCH  REQUESTED:          0  ISSUED:          0  USEFUL:          0  USELESS:          0
PSCL5 USEFUL LOAD PREFETCHES:          0 PREFETCH ISSUED TO LOWER LEVEL:          0  ACCURACY: -nan
PSCL5 TIMELY PREFETCHES:          0 LATE PREFETCHES: 0 DROPPED PREFETCHES: 0
PSCL5 PREFETCHES SAME FILL-ORIGIN LEVEL: 0 DIFFERENT FILL-ORIGIN LEVEL: 0

PSCL4 TOTAL     ACCESS:      21349  HIT:      21349  MISS:          0  HIT %:        100  MISS %:          0   MPKI: 0
PSCL4 LOAD TRANSLATION ACCESS:       5629  HIT:       5629  MISS:          0  HIT %:        100  MISS %:          0   MPKI: 0
PSCL4 TRANSLATION FROM L1D PREFETCHER ACCESS:      15720  HIT:      15720  MISS:          0  HIT %:        100  MISS %:          0   MPKI: 0
PSCL4 PREFETCH  REQUESTED:          0  ISSUED:          0  USEFUL:          0  USELESS:          0
PSCL4 USEFUL LOAD PREFETCHES:          0 PREFETCH ISSUED TO LOWER LEVEL:          0  ACCURACY: -nan
PSCL4 TIMELY PREFETCHES:          0 LATE PREFETCHES: 0 DROPPED PREFETCHES: 0
PSCL4 PREFETCHES SAME FILL-ORIGIN LEVEL: 0 DIFFERENT FILL-ORIGIN LEVEL: 0

PSCL3 TOTAL     ACCESS:      21349  HIT:      21349  MISS:          0  HIT %:        100  MISS %:          0   MPKI: 0
PSCL3 LOAD TRANSLATION ACCESS:       5629  HIT:       5629  MISS:          0  HIT %:        100  MISS %:          0   MPKI: 0
PSCL3 TRANSLATION FROM L1D PREFETCHER ACCESS:      15720  HIT:      15720  MISS:          0  HIT %:        100  MISS %:          0   MPKI: 0
PSCL3 PREFETCH  REQUESTED:          0  ISSUED:          0  USEFUL:          0  USELESS:          0
PSCL3 USEFUL LOAD PREFETCHES:          0 PREFETCH ISSUED TO LOWER LEVEL:          0  ACCURACY: -nan
PSCL3 TIMELY PREFETCHES:          0 LATE PREFETCHES: 0 DROPPED PREFETCHES: 0
PSCL3 PREFETCHES SAME FILL-ORIGIN LEVEL: 0 DIFFERENT FILL-ORIGIN LEVEL: 0

PSCL2 TOTAL     ACCESS:      21349  HIT:      21349  MISS:          0  HIT %:        100  MISS %:          0   MPKI: 0
PSCL2 LOAD TRANSLATION ACCESS:       5629  HIT:       5629  MISS:          0  HIT %:        100  MISS %:          0   MPKI: 0
PSCL2 TRANSLATION FROM L1D PREFETCHER ACCESS:      15720  HIT:      15720  MISS:          0  HIT %:        100  MISS %:          0   MPKI: 0
PSCL2 PREFETCH  REQUESTED:          0  ISSUED:          0  USEFUL:          0  USELESS:          0
PSCL2 USEFUL LOAD PREFETCHES:          0 PREFETCH ISSUED TO LOWER LEVEL:          0  ACCURACY: -nan
PSCL2 TIMELY PREFETCHES:          0 LATE PREFETCHES: 0 DROPPED PREFETCHES: 0
PSCL2 PREFETCHES SAME FILL-ORIGIN LEVEL: 0 DIFFERENT FILL-ORIGIN LEVEL: 0

LLC TOTAL     ACCESS:     725751  HIT:      71738  MISS:     654013  HIT %:    9.88466  MISS %:    90.1153   MPKI: 13.0803
LLC LOAD      ACCESS:     177336  HIT:      11606  MISS:     165730  HIT %:    6.54464  MISS %:    93.4554   MPKI: 3.3146
LLC RFO       ACCESS:      31498  HIT:       4539  MISS:      26959  HIT %:    14.4104  MISS %:    85.5896   MPKI: 0.53918
LLC PREFETCH  ACCESS:     473990  HIT:      18509  MISS:     455481  HIT %:    3.90493  MISS %:    96.0951   MPKI: 9.10962
AGUS PREFETCH L1 MISS: 0
LLC WRITEBACK ACCESS:      38255  HIT:      36909  MISS:       1346  HIT %:    96.4815  MISS %:    3.51849   MPKI: 0.02692
LLC LOAD TRANSLATION ACCESS:       1929  HIT:         85  MISS:       1844  HIT %:    4.40643  MISS %:    95.5936   MPKI: 0.03688
LLC TRANSLATION FROM L1D PREFETCHER ACCESS:       2743  HIT:         90  MISS:       2653  HIT %:    3.28108  MISS %:    96.7189   MPKI: 0.05306
LLC PREFETCH  REQUESTED:          0  ISSUED:          0  USEFUL:       5207  USELESS:     453740
LLC USEFUL LOAD PREFETCHES:       5207 PREFETCH ISSUED TO LOWER LEVEL:     455481  ACCURACY: 1.14319
LLC TIMELY PREFETCHES:       5207 LATE PREFETCHES: 0 DROPPED PREFETCHES: 0
LLC PREFETCHES SAME FILL-ORIGIN LEVEL: 0 DIFFERENT FILL-ORIGIN LEVEL: 0
LLC AVERAGE MISS LATENCY: 126.361 cycles
LLC RQ	ACCESS:     213507	FORWARD:          0	MERGED:          0	TO_CACHE:     213506
LLC WQ	ACCESS:      38255	FORWARD:          2	MERGED:          0	TO_CACHE:      38255
LLC PQ	ACCESS:     473991	FORWARD:          0	MERGED:          0	TO_CACHE:     473990

LLC Dense regions hint to LLC: 0

RAW hits: 56980
Loads Generated: 12945760
Loads sent to L1D: 12888780
Stores Generated: 858602
Stores sent to L1D: 858601
Major fault: 0 Minor fault: 4120
Allocated PAGES: 4120

stream: 
stream:times selected: 602926
stream:pref_filled: 306666
stream:pref_useful: 143409
stream:pref_late: 7307
stream:misses: 170445
stream:misses_by_poll: 0

CS: 
CS:times selected: 29333
CS:pref_filled: 64364
CS:pref_useful: 54344
CS:pref_late: 10
CS:misses: 47440
CS:misses_by_poll: 6

CPLX: 
CPLX:times selected: 570733
CPLX:pref_filled: 79673
CPLX:pref_useful: 49124
CPLX:pref_late: 47
CPLX:misses: 860271
CPLX:misses_by_poll: 18

NL_L1: 
NL:times selected: 863
NL:pref_filled: 616
NL:pref_useful: 283
NL:pref_late: 5
NL:misses: 1210
NL:misses_by_poll: 0

total selections: 1203855
total_filled: 611077
total_useful: 405904
total_late: 9388
total_polluted: 24
total_misses_after_warmup: 751852
conflicts: 6191

test: 211591
ISB Prefetcher final stats
Training Unit Size: 198
Addr table size: 131157 131160


Triggers: 602930
No Prediction: 185861 30.8263
Stream end: 343332
No translation: 348941920 57874.4
Predictions: 908840 150.737


Stream divergence: 167070 27.7097
Stream divergence -- new stream: 0

DRAM Statistics
 CHANNEL 0
 RQ ROW_BUFFER_HIT:     423356  ROW_BUFFER_MISS:     229311
 DBUS_CONGESTED:        155
 WQ ROW_BUFFER_HIT:       5609  ROW_BUFFER_MISS:      30560  FULL:          0

 AVG_CONGESTED_CYCLE: 4
 All warmup complete: 2
Channel 0 Bank busy for read cycles: 0
Channel 0 Bank busy for write cycles: 0
Channel 0
Rank 0
0banks busy for read cycles: 38351192
0banks busy for write cycles: 17945
1banks busy for read cycles: 9756747
1banks busy for write cycles: 2260907
2banks busy for read cycles: 4767895
2banks busy for write cycles: 763626
3banks busy for read cycles: 2853685
3banks busy for write cycles: 345156
4banks busy for read cycles: 1873167
4banks busy for write cycles: 170150
5banks busy for read cycles: 1484494
5banks busy for write cycles: 82903
6banks busy for read cycles: 1294418
6banks busy for write cycles: 49765
7banks busy for read cycles: 598629
7banks busy for write cycles: 18854
8banks busy for read cycles: 105101
8banks busy for write cycles: 7389

CPU 0 Branch Prediction Accuracy: 95.9006% MPKI: 3.75386 Average ROB Occupancy at Mispredict: 86.9885
Branch types
NOT_BRANCH: 45421579 90.8432%
BRANCH_DIRECT_JUMP: 86244 0.172488%
BRANCH_INDIRECT: 0 0%
BRANCH_CONDITIONAL: 4321583 8.64317%
BRANCH_DIRECT_CALL: 85361 0.170722%
BRANCH_INDIRECT_CALL: 0 0%
BRANCH_RETURN: 85359 0.170718%
BRANCH_OTHER: 0 0%

DRAM PAGES: 1048576
Allocated PAGES: 4120
