
*** ChampSim Multicore Out-of-Order Simulator ***

Warmup Instructions: 50000000
Simulation Instructions: 50000000
Number of CPUs: 1
LLC sets: 2048
LLC ways: 16
Off-chip DRAM Size: 4096 MB Channels: 1 Width: 64-bit Data Rate: 6400 MT/s
CPU 0 runs traces/SPEC-CPU2017/602.gcc_s-2226B.champsimtrace.xz
.xz
CPU 0 Bimodal branch predictor
BTB has LRU replacement policy
ITLB has LRU replacement policy
DTLB has LRU replacement policy
STLB has LRU replacement policy
L1I has LRU replacement policy
L1D has LRU replacement policy
L2C has LRU replacement policy
LLC has LRU replacement policy
Heartbeat CPU 0 instructions: 10000001 cycles: 3757607 heartbeat IPC: 2.66127 cumulative IPC: 2.66127 (Simulation time: 0 hr 4 min 15 sec) 
Heartbeat CPU 0 instructions: 20000000 cycles: 7515984 heartbeat IPC: 2.66072 cumulative IPC: 2.661 (Simulation time: 0 hr 8 min 31 sec) 
Heartbeat CPU 0 instructions: 30000001 cycles: 11269870 heartbeat IPC: 2.66391 cumulative IPC: 2.66197 (Simulation time: 0 hr 12 min 49 sec) 
Heartbeat CPU 0 instructions: 40000000 cycles: 15024017 heartbeat IPC: 2.66372 cumulative IPC: 2.6624 (Simulation time: 0 hr 17 min 6 sec) 
Heartbeat CPU 0 instructions: 50000000 cycles: 18782041 heartbeat IPC: 2.66097 cumulative IPC: 2.66212 (Simulation time: 0 hr 21 min 21 sec) 

Warmup complete CPU 0 instructions: 50000004 cycles: 18782042 (Simulation time: 0 hr 21 min 21 sec) 

Heartbeat CPU 0 instructions: 60000000 cycles: 45196639 heartbeat IPC: 0.378579 cumulative IPC: 0.378578 (Simulation time: 0 hr 22 min 21 sec) 
Heartbeat CPU 0 instructions: 70000000 cycles: 71275115 heartbeat IPC: 0.383458 cumulative IPC: 0.381003 (Simulation time: 0 hr 23 min 21 sec) 
Heartbeat CPU 0 instructions: 80000000 cycles: 97505827 heartbeat IPC: 0.381233 cumulative IPC: 0.381079 (Simulation time: 0 hr 24 min 21 sec) 
Heartbeat CPU 0 instructions: 90000001 cycles: 123838780 heartbeat IPC: 0.379752 cumulative IPC: 0.380747 (Simulation time: 0 hr 25 min 21 sec) 
Heartbeat CPU 0 instructions: 100000000 cycles: 150124757 heartbeat IPC: 0.380431 cumulative IPC: 0.380683 (Simulation time: 0 hr 26 min 20 sec) 
Finished CPU 0 instructions: 50000001 cycles: 131342735 cumulative IPC: 0.380683 (Simulation time: 0 hr 26 min 20 sec) 

ChampSim completed all CPUs

Region of Interest Statistics

CPU 0 cumulative IPC: 0.380683 instructions: 50000001 cycles: 131342735
ITLB TOTAL     ACCESS:   11162756  HIT:   11162756  MISS:          0  HIT %:        100  MISS %:          0   MPKI: 0
ITLB LOAD TRANSLATION ACCESS:   11162756  HIT:   11162756  MISS:          0  HIT %:        100  MISS %:          0   MPKI: 0
ITLB PREFETCH  REQUESTED:          0  ISSUED:          0  USEFUL:          0  USELESS:          0
ITLB USEFUL LOAD PREFETCHES:          0 PREFETCH ISSUED TO LOWER LEVEL:          0  ACCURACY: -nan
ITLB TIMELY PREFETCHES:          0 LATE PREFETCHES: 0 DROPPED PREFETCHES: 0
ITLB PREFETCHES SAME FILL-ORIGIN LEVEL: 0 DIFFERENT FILL-ORIGIN LEVEL: 0
ITLB AVERAGE MISS LATENCY: -nan cycles
ITLB RQ	ACCESS:   11335609	FORWARD:          0	MERGED:     172854	TO_CACHE:   11162755

DTLB TOTAL     ACCESS:    7714892  HIT:    7646404  MISS:      68488  HIT %:    99.1123  MISS %:   0.887738   MPKI: 1.36976
DTLB LOAD TRANSLATION ACCESS:    7714892  HIT:    7646404  MISS:      68488  HIT %:    99.1123  MISS %:   0.887738   MPKI: 1.36976
DTLB PREFETCH  REQUESTED:          0  ISSUED:          0  USEFUL:          0  USELESS:          0
DTLB USEFUL LOAD PREFETCHES:          0 PREFETCH ISSUED TO LOWER LEVEL:          0  ACCURACY: -nan
DTLB TIMELY PREFETCHES:          0 LATE PREFETCHES: 0 DROPPED PREFETCHES: 0
DTLB PREFETCHES SAME FILL-ORIGIN LEVEL: 0 DIFFERENT FILL-ORIGIN LEVEL: 0
DTLB AVERAGE MISS LATENCY: 69.9207 cycles
DTLB RQ	ACCESS:    9079425	FORWARD:          0	MERGED:    1364267	TO_CACHE:    7715158

STLB TOTAL     ACCESS:    3081419  HIT:    3015398  MISS:      66021  HIT %:    97.8574  MISS %:    2.14255   MPKI: 1.32042
STLB LOAD TRANSLATION ACCESS:      68488  HIT:       2469  MISS:      66019  HIT %:    3.60501  MISS %:     96.395   MPKI: 1.32038
STLB TRANSLATION FROM L1D PREFETCHER ACCESS:    3012931  HIT:    3012929  MISS:          2  HIT %:    99.9999  MISS %: 6.63805e-05   MPKI: 4e-05
STLB PREFETCH  REQUESTED:          0  ISSUED:          0  USEFUL:          2  USELESS:          0
STLB USEFUL LOAD PREFETCHES:          2 PREFETCH ISSUED TO LOWER LEVEL:          0  ACCURACY: inf
STLB TIMELY PREFETCHES:          2 LATE PREFETCHES: 0 DROPPED PREFETCHES: 0
STLB PREFETCHES SAME FILL-ORIGIN LEVEL: 0 DIFFERENT FILL-ORIGIN LEVEL: 0
STLB AVERAGE MISS LATENCY: 63.2101 cycles
STLB RQ	ACCESS:    4972680	FORWARD:          0	MERGED:    1891262	TO_CACHE:    3081418

STLB Hit, L1D data hit: 0
STLB Hit, L2C data hit: 0
STLB Hit, LLC data hit: 0
STLB Hit, LLC data miss: 0
STLB STLB hints to L2: 0
L1D TOTAL     ACCESS:   13872305  HIT:   10053194  MISS:    3819111  HIT %:    72.4695  MISS %:    27.5305   MPKI: 76.3822
L1D LOAD      ACCESS:    8392148  HIT:    8209897  MISS:     182251  HIT %:    97.8283  MISS %:    2.17168   MPKI: 3.64502
L1D RFO       ACCESS:     654318  HIT:     653766  MISS:        552  HIT %:    99.9156  MISS %:  0.0843626   MPKI: 0.01104
L1D PREFETCH  ACCESS:    4825839  HIT:    1189531  MISS:    3636308  HIT %:    24.6492  MISS %:    75.3508   MPKI: 72.7262
AGUS PREFETCH L1 MISS: 0
L1D PREFETCH  REQUESTED:    9842527  ISSUED:    9808386  USEFUL:    3339866  USELESS:     296449
L1D USEFUL LOAD PREFETCHES:    3339866 PREFETCH ISSUED TO LOWER LEVEL:    3711784  ACCURACY: 89.9801
L1D TIMELY PREFETCHES:    3339866 LATE PREFETCHES: 75053 DROPPED PREFETCHES: 0
L1D PREFETCHES SAME FILL-ORIGIN LEVEL: 3711784 DIFFERENT FILL-ORIGIN LEVEL: 0
L1D AVERAGE MISS LATENCY: 119.172 cycles
L1D RQ	ACCESS:   17950674	FORWARD:          0	MERGED:    9524060	TO_CACHE:    8425103
L1D WQ	ACCESS:     726205	FORWARD:       1511	MERGED:      71883	TO_CACHE:     654322
L1D PQ	ACCESS:    4904193	FORWARD:          0	MERGED:          0	TO_CACHE:    4904193

L1D UNIQUE REGIONS ACCESSED: 0
L1D REGIONS CONFLICTS: 0
L1D Cross Page Prefetch Requests: 0
L1D Same Page Prefetch Requests: 9619521
L1D ROI Sum of L1D PQ occupancy: 64453112
L1D PREFETCHES PUSHED FROM L2C: 0
L1I TOTAL     ACCESS:   11335609  HIT:   11335609  MISS:          0  HIT %:        100  MISS %:          0   MPKI: 0
L1I LOAD      ACCESS:   11335609  HIT:   11335609  MISS:          0  HIT %:        100  MISS %:          0   MPKI: 0
L1I PREFETCH  REQUESTED:          0  ISSUED:          0  USEFUL:          0  USELESS:          0
L1I USEFUL LOAD PREFETCHES:          0 PREFETCH ISSUED TO LOWER LEVEL:          0  ACCURACY: -nan
L1I TIMELY PREFETCHES:          0 LATE PREFETCHES: 0 DROPPED PREFETCHES: 0
L1I PREFETCHES SAME FILL-ORIGIN LEVEL: 0 DIFFERENT FILL-ORIGIN LEVEL: 0
L1I AVERAGE MISS LATENCY: -nan cycles
L1I RQ	ACCESS:   16030135	FORWARD:          0	MERGED:    4694526	TO_CACHE:   11335609

BTB TOTAL     ACCESS:   11928195  HIT:   11928097  MISS:         98  HIT %:    99.9992  MISS %: 0.000821583   MPKI: 0.00196
BTB BRANCH_DIRECT_JUMP	ACCESS:     168848  HIT:     168822  MISS:         26
BTB BRANCH_INDIRECT	ACCESS:          0  HIT:          0  MISS:          0
BTB BRANCH_CONDITIONAL	ACCESS:   11592637  HIT:   11592588  MISS:         49
BTB BRANCH_DIRECT_CALL	ACCESS:      83355  HIT:      83345  MISS:         10
BTB BRANCH_INDIRECT_CALL	ACCESS:          0  HIT:          0  MISS:          0
BTB BRANCH_RETURN	ACCESS:      83355  HIT:      83342  MISS:         13
BTB BRANCH_OTHER ACCESS:          0  HIT:          0  MISS:          0

L2C TOTAL     ACCESS:    3892849  HIT:     215089  MISS:    3677760  HIT %:    5.52523  MISS %:    94.4748   MPKI: 73.5552
L2C LOAD      ACCESS:     107180  HIT:      20152  MISS:      87028  HIT %:     18.802  MISS %:     81.198   MPKI: 1.74056
L2C DATA LOAD MPKI: 1.74056
L2C INSTRUCTION LOAD MPKI: 0
L2C RFO       ACCESS:        134  HIT:         75  MISS:         59  HIT %:    55.9701  MISS %:    44.0299   MPKI: 0.00118
L2C PREFETCH  ACCESS:    3711779  HIT:     136749  MISS:    3575030  HIT %:    3.68419  MISS %:    96.3158   MPKI: 71.5006
AGUS PREFETCH L1 MISS: 0
L2C DATA PREFETCH MPKI: 71.5006
L2C INSTRUCTION PREFETCH MPKI: 0
L2C WRITEBACK ACCESS:       6220  HIT:       6051  MISS:        169  HIT %:     97.283  MISS %:    2.71704   MPKI: 0.00338
L2C LOAD TRANSLATION ACCESS:      67532  HIT:      52061  MISS:      15471  HIT %:    77.0909  MISS %:    22.9091   MPKI: 0.30942
L2C TRANSLATION FROM L1D PREFETCHER ACCESS:          4  HIT:          1  MISS:          3  HIT %:         25  MISS %:         75   MPKI: 6e-05
L2C PREFETCH  REQUESTED:          0  ISSUED:          0  USEFUL:       4998  USELESS:    3570042
L2C USEFUL LOAD PREFETCHES:       4998 PREFETCH ISSUED TO LOWER LEVEL:    3575035  ACCURACY: 0.139803
L2C TIMELY PREFETCHES:       4998 LATE PREFETCHES: 0 DROPPED PREFETCHES: 0
L2C PREFETCHES SAME FILL-ORIGIN LEVEL: 0 DIFFERENT FILL-ORIGIN LEVEL: 0
L2C AVERAGE MISS LATENCY: 108.726 cycles
L2C RQ	ACCESS:     174868	FORWARD:          0	MERGED:          0	TO_CACHE:     174850
L2C WQ	ACCESS:       6220	FORWARD:         18	MERGED:          0	TO_CACHE:       6220
L2C PQ	ACCESS:    3711784	FORWARD:          0	MERGED:          0	TO_CACHE:    3711784

L2C Instructions Evicting Data 0
L2C Translations Evicting Data 15437
L2C Data Evicting Data 3646689
L2C Instructions Evicting Instructions 0
L2C Translations Evicting Instructions 0
L2C Data Evicting Instructions 0
L2C Instructions Evicting Translations 0
L2C Translations Evicting Translations 37
L2C Data Evicting Translations 15428
L2C Dense regions hint from L2: 0
PSCL5 TOTAL     ACCESS:      66020  HIT:      66020  MISS:          0  HIT %:        100  MISS %:          0   MPKI: 0
PSCL5 LOAD TRANSLATION ACCESS:      66018  HIT:      66018  MISS:          0  HIT %:        100  MISS %:          0   MPKI: 0
PSCL5 TRANSLATION FROM L1D PREFETCHER ACCESS:          2  HIT:          2  MISS:          0  HIT %:        100  MISS %:          0   MPKI: 0
PSCL5 PREFETCH  REQUESTED:          0  ISSUED:          0  USEFUL:          0  USELESS:          0
PSCL5 USEFUL LOAD PREFETCHES:          0 PREFETCH ISSUED TO LOWER LEVEL:          0  ACCURACY: -nan
PSCL5 TIMELY PREFETCHES:          0 LATE PREFETCHES: 0 DROPPED PREFETCHES: 0
PSCL5 PREFETCHES SAME FILL-ORIGIN LEVEL: 0 DIFFERENT FILL-ORIGIN LEVEL: 0

PSCL4 TOTAL     ACCESS:      66020  HIT:      66020  MISS:          0  HIT %:        100  MISS %:          0   MPKI: 0
PSCL4 LOAD TRANSLATION ACCESS:      66018  HIT:      66018  MISS:          0  HIT %:        100  MISS %:          0   MPKI: 0
PSCL4 TRANSLATION FROM L1D PREFETCHER ACCESS:          2  HIT:          2  MISS:          0  HIT %:        100  MISS %:          0   MPKI: 0
PSCL4 PREFETCH  REQUESTED:          0  ISSUED:          0  USEFUL:          0  USELESS:          0
PSCL4 USEFUL LOAD PREFETCHES:          0 PREFETCH ISSUED TO LOWER LEVEL:          0  ACCURACY: -nan
PSCL4 TIMELY PREFETCHES:          0 LATE PREFETCHES: 0 DROPPED PREFETCHES: 0
PSCL4 PREFETCHES SAME FILL-ORIGIN LEVEL: 0 DIFFERENT FILL-ORIGIN LEVEL: 0

PSCL3 TOTAL     ACCESS:      66018  HIT:      66011  MISS:          7  HIT %:    99.9894  MISS %:  0.0106032   MPKI: 0.00014
PSCL3 LOAD TRANSLATION ACCESS:      66017  HIT:      66010  MISS:          7  HIT %:    99.9894  MISS %:  0.0106033   MPKI: 0.00014
PSCL3 TRANSLATION FROM L1D PREFETCHER ACCESS:          1  HIT:          1  MISS:          0  HIT %:        100  MISS %:          0   MPKI: 0
PSCL3 PREFETCH  REQUESTED:          0  ISSUED:          0  USEFUL:          0  USELESS:          0
PSCL3 USEFUL LOAD PREFETCHES:          0 PREFETCH ISSUED TO LOWER LEVEL:          0  ACCURACY: -nan
PSCL3 TIMELY PREFETCHES:          0 LATE PREFETCHES: 0 DROPPED PREFETCHES: 0
PSCL3 PREFETCHES SAME FILL-ORIGIN LEVEL: 0 DIFFERENT FILL-ORIGIN LEVEL: 0

PSCL2 TOTAL     ACCESS:      66020  HIT:      64510  MISS:       1510  HIT %:    97.7128  MISS %:    2.28719   MPKI: 0.0302
PSCL2 LOAD TRANSLATION ACCESS:      66019  HIT:      64509  MISS:       1510  HIT %:    97.7128  MISS %:    2.28722   MPKI: 0.0302
PSCL2 TRANSLATION FROM L1D PREFETCHER ACCESS:          1  HIT:          1  MISS:          0  HIT %:        100  MISS %:          0   MPKI: 0
PSCL2 PREFETCH  REQUESTED:          0  ISSUED:          0  USEFUL:          0  USELESS:          0
PSCL2 USEFUL LOAD PREFETCHES:          0 PREFETCH ISSUED TO LOWER LEVEL:          0  ACCURACY: -nan
PSCL2 TIMELY PREFETCHES:          0 LATE PREFETCHES: 0 DROPPED PREFETCHES: 0
PSCL2 PREFETCHES SAME FILL-ORIGIN LEVEL: 0 DIFFERENT FILL-ORIGIN LEVEL: 0

LLC TOTAL     ACCESS:    3683363  HIT:      26181  MISS:    3657182  HIT %:   0.710791  MISS %:    99.2892   MPKI: 73.1436
LLC LOAD      ACCESS:      87028  HIT:       1243  MISS:      85785  HIT %:    1.42828  MISS %:    98.5717   MPKI: 1.7157
LLC RFO       ACCESS:         59  HIT:          0  MISS:         59  HIT %:          0  MISS %:        100   MPKI: 0.00118
LLC PREFETCH  ACCESS:    3575030  HIT:      18496  MISS:    3556534  HIT %:   0.517366  MISS %:    99.4826   MPKI: 71.1307
AGUS PREFETCH L1 MISS: 0
LLC WRITEBACK ACCESS:       5772  HIT:       5686  MISS:         86  HIT %:      98.51  MISS %:    1.48995   MPKI: 0.00172
LLC LOAD TRANSLATION ACCESS:      15471  HIT:        756  MISS:      14715  HIT %:    4.88656  MISS %:    95.1134   MPKI: 0.2943
LLC TRANSLATION FROM L1D PREFETCHER ACCESS:          3  HIT:          0  MISS:          3  HIT %:          0  MISS %:        100   MPKI: 6e-05
LLC PREFETCH  REQUESTED:          0  ISSUED:          0  USEFUL:        155  USELESS:    3556229
LLC USEFUL LOAD PREFETCHES:        155 PREFETCH ISSUED TO LOWER LEVEL:    3556537  ACCURACY: 0.00435817
LLC TIMELY PREFETCHES:        155 LATE PREFETCHES: 0 DROPPED PREFETCHES: 0
LLC PREFETCHES SAME FILL-ORIGIN LEVEL: 0 DIFFERENT FILL-ORIGIN LEVEL: 0
LLC AVERAGE MISS LATENCY: 79.1699 cycles
LLC RQ	ACCESS:     102561	FORWARD:          0	MERGED:          0	TO_CACHE:     102561
LLC WQ	ACCESS:       5772	FORWARD:          0	MERGED:          0	TO_CACHE:       5772
LLC PQ	ACCESS:    3575035	FORWARD:          0	MERGED:          0	TO_CACHE:    3575035

LLC Dense regions hint to LLC: 0

RAW hits: 3928
Loads Generated: 17954602
Loads sent to L1D: 17950674
Stores Generated: 726205
Stores sent to L1D: 726205
Major fault: 0 Minor fault: 48887
Allocated PAGES: 48887

stream: 
stream:times selected: 15038620
stream:pref_reqs: 84962649
stream:pref_reqs_filtered_out: 76604397
stream:pref_filled: 6248187
stream:pref_useful: 5842574
stream:pref_late: 69411
stream:misses: 11964
stream:misses_by_poll: 0

CS: 
CS:times selected: 10932005
CS:pref_reqs: 32258773
CS:pref_reqs_filtered_out: 31639313
CS:pref_filled: 31129
CS:pref_useful: 30032
CS:pref_late: 1574
CS:misses: 238951
CS:misses_by_poll: 242

CPLX: 
CPLX:times selected: 4103139
CPLX:pref_reqs: 8222035
CPLX:pref_reqs_filtered_out: 6887426
CPLX:pref_filled: 1024359
CPLX:pref_useful: 859503
CPLX:pref_late: 9578
CPLX:misses: 77545
CPLX:misses_by_poll: 10313

NL_L1: 
NL:times selected: 2117
NL:pref_reqs: 2117
NL:pref_reqs_filtered_out: 1532
NL:pref_filled: 489
NL:pref_useful: 470
NL:pref_late: 38
NL:misses: 75
NL:misses_by_poll: 0

Coverage: 94.8255
total selections: 30075881
total_filled: 3636308
total_useful: 3339866
total_late: 83298
total_polluted: 10555
total_misses_after_warmup: 215206
conflicts: 63035


DRAM Statistics
 CHANNEL 0
 RQ ROW_BUFFER_HIT:    3368795  ROW_BUFFER_MISS:     288302
 DBUS_CONGESTED:        912
 WQ ROW_BUFFER_HIT:       1142  ROW_BUFFER_MISS:       4559  FULL:          0

 AVG_CONGESTED_CYCLE: 4
 All warmup complete: 2
Channel 0 Bank busy for read cycles: 0
Channel 0 Bank busy for write cycles: 0
Channel 0
Rank 0
0banks busy for read cycles: 34693994
0banks busy for write cycles: 2895
1banks busy for read cycles: 28029570
1banks busy for write cycles: 838242
2banks busy for read cycles: 40171546
2banks busy for write cycles: 306494
3banks busy for read cycles: 17695813
3banks busy for write cycles: 146126
4banks busy for read cycles: 3899520
4banks busy for write cycles: 63935
5banks busy for read cycles: 1180634
5banks busy for write cycles: 31529
6banks busy for read cycles: 1333245
6banks busy for write cycles: 15096
7banks busy for read cycles: 2687158
7banks busy for write cycles: 5607
8banks busy for read cycles: 240049
8banks busy for write cycles: 1283

CPU 0 Branch Prediction Accuracy: 99.1302% MPKI: 3.1024 Average ROB Occupancy at Mispredict: 96.8751
Branch types
NOT_BRANCH: 32166917 64.3338%
BRANCH_DIRECT_JUMP: 168848 0.337696%
BRANCH_INDIRECT: 0 0%
BRANCH_CONDITIONAL: 17497543 34.9951%
BRANCH_DIRECT_CALL: 83355 0.16671%
BRANCH_INDIRECT_CALL: 0 0%
BRANCH_RETURN: 83355 0.16671%
BRANCH_OTHER: 0 0%

DRAM PAGES: 1048576
Allocated PAGES: 48887
