
*** ChampSim Multicore Out-of-Order Simulator ***

Warmup Instructions: 50000000
Simulation Instructions: 50000000
Number of CPUs: 1
LLC sets: 2048
LLC ways: 16
Off-chip DRAM Size: 4096 MB Channels: 1 Width: 64-bit Data Rate: 6400 MT/s
CPU 0 runs traces/SPEC-CPU2017/623.xalancbmk_s-10B.champsimtrace.xz
.xz
CPU 0 Bimodal branch predictor
BTB has LRU replacement policy
ITLB has LRU replacement policy
DTLB has LRU replacement policy
STLB has LRU replacement policy
L1I has LRU replacement policy
L1D has LRU replacement policy
L2C has LRU replacement policy
LLC has LRU replacement policy
Heartbeat CPU 0 instructions: 10000001 cycles: 3146064 heartbeat IPC: 3.17858 cumulative IPC: 3.17858 (Simulation time: 0 hr 0 min 52 sec) 
Heartbeat CPU 0 instructions: 20000000 cycles: 6269497 heartbeat IPC: 3.20161 cumulative IPC: 3.19005 (Simulation time: 0 hr 1 min 44 sec) 
Heartbeat CPU 0 instructions: 30000001 cycles: 9411707 heartbeat IPC: 3.18247 cumulative IPC: 3.18752 (Simulation time: 0 hr 2 min 40 sec) 
Heartbeat CPU 0 instructions: 40000000 cycles: 12570035 heartbeat IPC: 3.16623 cumulative IPC: 3.18217 (Simulation time: 0 hr 3 min 37 sec) 
Heartbeat CPU 0 instructions: 50000000 cycles: 15739308 heartbeat IPC: 3.1553 cumulative IPC: 3.17676 (Simulation time: 0 hr 4 min 38 sec) 

Warmup complete CPU 0 instructions: 50000004 cycles: 15739309 (Simulation time: 0 hr 4 min 38 sec) 

Heartbeat CPU 0 instructions: 60000000 cycles: 46709548 heartbeat IPC: 0.322891 cumulative IPC: 0.32289 (Simulation time: 0 hr 5 min 42 sec) 
Heartbeat CPU 0 instructions: 70000000 cycles: 78556640 heartbeat IPC: 0.314 cumulative IPC: 0.318383 (Simulation time: 0 hr 6 min 49 sec) 
Heartbeat CPU 0 instructions: 80000000 cycles: 110719927 heartbeat IPC: 0.310914 cumulative IPC: 0.315854 (Simulation time: 0 hr 7 min 58 sec) 
Heartbeat CPU 0 instructions: 90000000 cycles: 141551508 heartbeat IPC: 0.324343 cumulative IPC: 0.317934 (Simulation time: 0 hr 9 min 5 sec) 
Heartbeat CPU 0 instructions: 100000000 cycles: 173990480 heartbeat IPC: 0.308271 cumulative IPC: 0.315953 (Simulation time: 0 hr 10 min 14 sec) 
Finished CPU 0 instructions: 50000003 cycles: 158251205 cumulative IPC: 0.315953 (Simulation time: 0 hr 10 min 14 sec) 

ChampSim completed all CPUs

Region of Interest Statistics

CPU 0 cumulative IPC: 0.315953 instructions: 50000003 cycles: 158251205
ITLB TOTAL     ACCESS:    7900672  HIT:    7866763  MISS:      33909  HIT %:    99.5708  MISS %:   0.429191   MPKI: 0.67818
ITLB LOAD TRANSLATION ACCESS:    7900672  HIT:    7866763  MISS:      33909  HIT %:    99.5708  MISS %:   0.429191   MPKI: 0.67818
ITLB PREFETCH  REQUESTED:          0  ISSUED:          0  USEFUL:          0  USELESS:          0
ITLB USEFUL LOAD PREFETCHES:          0 PREFETCH ISSUED TO LOWER LEVEL:          0  ACCURACY: -nan
ITLB TIMELY PREFETCHES:          0 LATE PREFETCHES: 0 DROPPED PREFETCHES: 0
ITLB PREFETCHES SAME FILL-ORIGIN LEVEL: 0 DIFFERENT FILL-ORIGIN LEVEL: 0
ITLB AVERAGE MISS LATENCY: 18.115 cycles
ITLB RQ	ACCESS:    9060685	FORWARD:          0	MERGED:    1150932	TO_CACHE:    7909753

DTLB TOTAL     ACCESS:   10311588  HIT:    9974269  MISS:     337319  HIT %:    96.7287  MISS %:    3.27126   MPKI: 6.74638
DTLB LOAD TRANSLATION ACCESS:   10311588  HIT:    9974269  MISS:     337319  HIT %:    96.7287  MISS %:    3.27126   MPKI: 6.74638
DTLB PREFETCH  REQUESTED:          0  ISSUED:          0  USEFUL:          0  USELESS:          0
DTLB USEFUL LOAD PREFETCHES:          0 PREFETCH ISSUED TO LOWER LEVEL:          0  ACCURACY: -nan
DTLB TIMELY PREFETCHES:          0 LATE PREFETCHES: 0 DROPPED PREFETCHES: 0
DTLB PREFETCHES SAME FILL-ORIGIN LEVEL: 0 DIFFERENT FILL-ORIGIN LEVEL: 0
DTLB AVERAGE MISS LATENCY: 15.1739 cycles
DTLB RQ	ACCESS:   11386248	FORWARD:          0	MERGED:    1050339	TO_CACHE:   10335909

STLB TOTAL     ACCESS:    1445461  HIT:    1189831  MISS:     255630  HIT %:     82.315  MISS %:     17.685   MPKI: 5.1126
STLB LOAD TRANSLATION ACCESS:     371228  HIT:     326554  MISS:      44674  HIT %:    87.9659  MISS %:    12.0341   MPKI: 0.89348
STLB TRANSLATION FROM L1D PREFETCHER ACCESS:    1074233  HIT:     863277  MISS:     210956  HIT %:    80.3622  MISS %:    19.6378   MPKI: 4.21912
STLB PREFETCH  REQUESTED:          0  ISSUED:          0  USEFUL:     210208  USELESS:        774
STLB USEFUL LOAD PREFETCHES:     210208 PREFETCH ISSUED TO LOWER LEVEL:          0  ACCURACY: inf
STLB TIMELY PREFETCHES:     210208 LATE PREFETCHES: 83 DROPPED PREFETCHES: 0
STLB PREFETCHES SAME FILL-ORIGIN LEVEL: 0 DIFFERENT FILL-ORIGIN LEVEL: 0
STLB AVERAGE MISS LATENCY: 142.802 cycles
STLB RQ	ACCESS:    1582524	FORWARD:          0	MERGED:     135783	TO_CACHE:    1446741

STLB Hit, L1D data hit: 0
STLB Hit, L2C data hit: 0
STLB Hit, LLC data hit: 0
STLB Hit, LLC data miss: 0
STLB STLB hints to L2: 0
L1D TOTAL     ACCESS:   12443074  HIT:   10787434  MISS:    1655640  HIT %:    86.6943  MISS %:    13.3057   MPKI: 33.1128
L1D LOAD      ACCESS:    8966392  HIT:    8327347  MISS:     639045  HIT %:    92.8729  MISS %:    7.12711   MPKI: 12.7809
L1D RFO       ACCESS:    2330733  HIT:    2310381  MISS:      20352  HIT %:    99.1268  MISS %:   0.873202   MPKI: 0.40704
L1D PREFETCH  ACCESS:    1145949  HIT:     149706  MISS:     996243  HIT %:    13.0639  MISS %:    86.9361   MPKI: 19.9249
AGUS PREFETCH L1 MISS: 0
L1D PREFETCH  REQUESTED:    2497452  ISSUED:    2422592  USEFUL:     699535  USELESS:     296706
L1D USEFUL LOAD PREFETCHES:     699535 PREFETCH ISSUED TO LOWER LEVEL:    1008909  ACCURACY: 69.3358
L1D TIMELY PREFETCHES:     699535 LATE PREFETCHES: 12644 DROPPED PREFETCHES: 0
L1D PREFETCHES SAME FILL-ORIGIN LEVEL: 1008909 DIFFERENT FILL-ORIGIN LEVEL: 0
L1D AVERAGE MISS LATENCY: 170.911 cycles
L1D RQ	ACCESS:   14679658	FORWARD:          0	MERGED:    5625015	TO_CACHE:    8994766
L1D WQ	ACCESS:    2425925	FORWARD:      59877	MERGED:      34443	TO_CACHE:    2391482
L1D PQ	ACCESS:    1211296	FORWARD:          0	MERGED:          0	TO_CACHE:    1211296

L1D UNIQUE REGIONS ACCESSED: 0
L1D REGIONS CONFLICTS: 0
L1D Cross Page Prefetch Requests: 1480877
L1D Same Page Prefetch Requests: 987351
L1D ROI Sum of L1D PQ occupancy: 75013124
L1D PREFETCHES PUSHED FROM L2C: 0
L1I TOTAL     ACCESS:    9009186  HIT:    8833145  MISS:     176041  HIT %:     98.046  MISS %:    1.95402   MPKI: 3.52082
L1I LOAD      ACCESS:    9009186  HIT:    8833145  MISS:     176041  HIT %:     98.046  MISS %:    1.95402   MPKI: 3.52082
L1I PREFETCH  REQUESTED:          0  ISSUED:          0  USEFUL:          0  USELESS:          0
L1I USEFUL LOAD PREFETCHES:          0 PREFETCH ISSUED TO LOWER LEVEL:          0  ACCURACY: -nan
L1I TIMELY PREFETCHES:          0 LATE PREFETCHES: 0 DROPPED PREFETCHES: 0
L1I PREFETCHES SAME FILL-ORIGIN LEVEL: 0 DIFFERENT FILL-ORIGIN LEVEL: 0
L1I AVERAGE MISS LATENCY: 39.1114 cycles
L1I RQ	ACCESS:   15172958	FORWARD:          0	MERGED:    6112273	TO_CACHE:    9060685

BTB TOTAL     ACCESS:    8240388  HIT:    8162326  MISS:      78062  HIT %:    99.0527  MISS %:    0.94731   MPKI: 1.56124
BTB BRANCH_DIRECT_JUMP	ACCESS:     125745  HIT:     125105  MISS:        640
BTB BRANCH_INDIRECT	ACCESS:      22046  HIT:       8847  MISS:      13199
BTB BRANCH_CONDITIONAL	ACCESS:    6916737  HIT:    6913889  MISS:       2848
BTB BRANCH_DIRECT_CALL	ACCESS:     323606  HIT:     322531  MISS:       1075
BTB BRANCH_INDIRECT_CALL	ACCESS:     264324  HIT:     261288  MISS:       3036
BTB BRANCH_RETURN	ACCESS:     587930  HIT:     530666  MISS:      57264
BTB BRANCH_OTHER ACCESS:          0  HIT:          0  MISS:          0

L2C TOTAL     ACCESS:    2127418  HIT:     521417  MISS:    1606001  HIT %:    24.5094  MISS %:    75.4906   MPKI: 32.12
L2C LOAD      ACCESS:     802442  HIT:     217604  MISS:     584838  HIT %:    27.1177  MISS %:    72.8823   MPKI: 11.6968
L2C DATA LOAD MPKI: 10.9648
L2C INSTRUCTION LOAD MPKI: 0.732
L2C RFO       ACCESS:      20326  HIT:       6632  MISS:      13694  HIT %:    32.6282  MISS %:    67.3718   MPKI: 0.27388
L2C PREFETCH  ACCESS:    1008908  HIT:      63151  MISS:     945757  HIT %:    6.25934  MISS %:    93.7407   MPKI: 18.9151
AGUS PREFETCH L1 MISS: 0
L2C DATA PREFETCH MPKI: 18.9151
L2C INSTRUCTION PREFETCH MPKI: 0
L2C WRITEBACK ACCESS:      38903  HIT:      38715  MISS:        188  HIT %:    99.5167  MISS %:   0.483253   MPKI: 0.00376
L2C LOAD TRANSLATION ACCESS:      44933  HIT:      41591  MISS:       3342  HIT %:    92.5623  MISS %:    7.43774   MPKI: 0.06684
L2C TRANSLATION FROM L1D PREFETCHER ACCESS:     211906  HIT:     153724  MISS:      58182  HIT %:    72.5435  MISS %:    27.4565   MPKI: 1.16364
L2C PREFETCH  REQUESTED:          0  ISSUED:          0  USEFUL:      73700  USELESS:     930589
L2C USEFUL LOAD PREFETCHES:      73700 PREFETCH ISSUED TO LOWER LEVEL:     945757  ACCURACY: 7.7927
L2C TIMELY PREFETCHES:      73700 LATE PREFETCHES: 0 DROPPED PREFETCHES: 0
L2C PREFETCHES SAME FILL-ORIGIN LEVEL: 0 DIFFERENT FILL-ORIGIN LEVEL: 0
L2C AVERAGE MISS LATENCY: 171.277 cycles
L2C RQ	ACCESS:    1079611	FORWARD:          0	MERGED:          0	TO_CACHE:    1079607
L2C WQ	ACCESS:      38903	FORWARD:          5	MERGED:          0	TO_CACHE:      38903
L2C PQ	ACCESS:    1008909	FORWARD:          0	MERGED:          0	TO_CACHE:    1008908

L2C Instructions Evicting Data 34801
L2C Translations Evicting Data 58140
L2C Data Evicting Data 1414702
L2C Instructions Evicting Instructions 833
L2C Translations Evicting Instructions 1000
L2C Data Evicting Instructions 34785
L2C Instructions Evicting Translations 966
L2C Translations Evicting Translations 2384
L2C Data Evicting Translations 58202
L2C Dense regions hint from L2: 0
PSCL5 TOTAL     ACCESS:     255630  HIT:     255630  MISS:          0  HIT %:        100  MISS %:          0   MPKI: 0
PSCL5 LOAD TRANSLATION ACCESS:      44591  HIT:      44591  MISS:          0  HIT %:        100  MISS %:          0   MPKI: 0
PSCL5 TRANSLATION FROM L1D PREFETCHER ACCESS:     211039  HIT:     211039  MISS:          0  HIT %:        100  MISS %:          0   MPKI: 0
PSCL5 PREFETCH  REQUESTED:          0  ISSUED:          0  USEFUL:          0  USELESS:          0
PSCL5 USEFUL LOAD PREFETCHES:          0 PREFETCH ISSUED TO LOWER LEVEL:          0  ACCURACY: -nan
PSCL5 TIMELY PREFETCHES:          0 LATE PREFETCHES: 0 DROPPED PREFETCHES: 0
PSCL5 PREFETCHES SAME FILL-ORIGIN LEVEL: 0 DIFFERENT FILL-ORIGIN LEVEL: 0

PSCL4 TOTAL     ACCESS:     255630  HIT:     255630  MISS:          0  HIT %:        100  MISS %:          0   MPKI: 0
PSCL4 LOAD TRANSLATION ACCESS:      44591  HIT:      44591  MISS:          0  HIT %:        100  MISS %:          0   MPKI: 0
PSCL4 TRANSLATION FROM L1D PREFETCHER ACCESS:     211039  HIT:     211039  MISS:          0  HIT %:        100  MISS %:          0   MPKI: 0
PSCL4 PREFETCH  REQUESTED:          0  ISSUED:          0  USEFUL:          0  USELESS:          0
PSCL4 USEFUL LOAD PREFETCHES:          0 PREFETCH ISSUED TO LOWER LEVEL:          0  ACCURACY: -nan
PSCL4 TIMELY PREFETCHES:          0 LATE PREFETCHES: 0 DROPPED PREFETCHES: 0
PSCL4 PREFETCHES SAME FILL-ORIGIN LEVEL: 0 DIFFERENT FILL-ORIGIN LEVEL: 0

PSCL3 TOTAL     ACCESS:     255630  HIT:     255630  MISS:          0  HIT %:        100  MISS %:          0   MPKI: 0
PSCL3 LOAD TRANSLATION ACCESS:      44591  HIT:      44591  MISS:          0  HIT %:        100  MISS %:          0   MPKI: 0
PSCL3 TRANSLATION FROM L1D PREFETCHER ACCESS:     211039  HIT:     211039  MISS:          0  HIT %:        100  MISS %:          0   MPKI: 0
PSCL3 PREFETCH  REQUESTED:          0  ISSUED:          0  USEFUL:          0  USELESS:          0
PSCL3 USEFUL LOAD PREFETCHES:          0 PREFETCH ISSUED TO LOWER LEVEL:          0  ACCURACY: -nan
PSCL3 TIMELY PREFETCHES:          0 LATE PREFETCHES: 0 DROPPED PREFETCHES: 0
PSCL3 PREFETCHES SAME FILL-ORIGIN LEVEL: 0 DIFFERENT FILL-ORIGIN LEVEL: 0

PSCL2 TOTAL     ACCESS:     255630  HIT:     254421  MISS:       1209  HIT %:    99.5271  MISS %:   0.472949   MPKI: 0.02418
PSCL2 LOAD TRANSLATION ACCESS:      45458  HIT:      44249  MISS:       1209  HIT %:    97.3404  MISS %:     2.6596   MPKI: 0.02418
PSCL2 TRANSLATION FROM L1D PREFETCHER ACCESS:     210172  HIT:     210172  MISS:          0  HIT %:        100  MISS %:          0   MPKI: 0
PSCL2 PREFETCH  REQUESTED:          0  ISSUED:          0  USEFUL:          0  USELESS:          0
PSCL2 USEFUL LOAD PREFETCHES:          0 PREFETCH ISSUED TO LOWER LEVEL:          0  ACCURACY: -nan
PSCL2 TIMELY PREFETCHES:          0 LATE PREFETCHES: 0 DROPPED PREFETCHES: 0
PSCL2 PREFETCHES SAME FILL-ORIGIN LEVEL: 0 DIFFERENT FILL-ORIGIN LEVEL: 0

LLC TOTAL     ACCESS:    1628245  HIT:     112021  MISS:    1516224  HIT %:    6.87986  MISS %:    93.1201   MPKI: 30.3245
LLC LOAD      ACCESS:     584838  HIT:      45029  MISS:     539809  HIT %:     7.6994  MISS %:    92.3006   MPKI: 10.7962
LLC RFO       ACCESS:      13694  HIT:       1545  MISS:      12149  HIT %:    11.2823  MISS %:    88.7177   MPKI: 0.24298
LLC PREFETCH  ACCESS:     945756  HIT:      40410  MISS:     905346  HIT %:    4.27277  MISS %:    95.7272   MPKI: 18.1069
AGUS PREFETCH L1 MISS: 0
LLC WRITEBACK ACCESS:      22433  HIT:      22314  MISS:        119  HIT %:    99.4695  MISS %:   0.530469   MPKI: 0.00238
LLC LOAD TRANSLATION ACCESS:       3342  HIT:        755  MISS:       2587  HIT %:    22.5913  MISS %:    77.4087   MPKI: 0.05174
LLC TRANSLATION FROM L1D PREFETCHER ACCESS:      58182  HIT:       1968  MISS:      56214  HIT %:    3.38249  MISS %:    96.6175   MPKI: 1.12428
LLC PREFETCH  REQUESTED:          0  ISSUED:          0  USEFUL:      10363  USELESS:     953056
LLC USEFUL LOAD PREFETCHES:      10363 PREFETCH ISSUED TO LOWER LEVEL:     905346  ACCURACY: 1.14465
LLC TIMELY PREFETCHES:      10363 LATE PREFETCHES: 0 DROPPED PREFETCHES: 0
LLC PREFETCHES SAME FILL-ORIGIN LEVEL: 0 DIFFERENT FILL-ORIGIN LEVEL: 0
LLC AVERAGE MISS LATENCY: 149.645 cycles
LLC RQ	ACCESS:     660056	FORWARD:          0	MERGED:          0	TO_CACHE:     660056
LLC WQ	ACCESS:      22433	FORWARD:          1	MERGED:          0	TO_CACHE:      22433
LLC PQ	ACCESS:     945757	FORWARD:          0	MERGED:          0	TO_CACHE:     945756

LLC Dense regions hint to LLC: 0

RAW hits: 62403
Loads Generated: 14742061
Loads sent to L1D: 14679658
Stores Generated: 2425922
Stores sent to L1D: 2425925
Major fault: 0 Minor fault: 11043
Allocated PAGES: 11043

stream: 
stream:times selected: 1037957
stream:pref_reqs: 1008666
stream:pref_reqs_filtered_out: 123693
stream:pref_filled: 549541
stream:pref_useful: 77219
stream:pref_late: 16810
stream:misses: 42839
stream:misses_by_poll: 0

CS: 
CS:times selected: 4773
CS:pref_reqs: 13500
CS:pref_reqs_filtered_out: 1544
CS:pref_filled: 9288
CS:pref_useful: 7769
CS:pref_late: 238
CS:misses: 1771
CS:misses_by_poll: 2

CPLX: 
CPLX:times selected: 1022099
CPLX:pref_reqs: 14754
CPLX:pref_reqs_filtered_out: 1343
CPLX:pref_filled: 11789
CPLX:pref_useful: 1366
CPLX:pref_late: 66
CPLX:misses: 119736
CPLX:misses_by_poll: 0

ISB: 
ISB:times selected:887156
ISB:pref_reqs: 1966483
ISB:pref_reqs_filtered_out: 214549
ISB:pref_filled: 1512041
ISB:pref_useful: 1461083
ISB:pref_late: 1137
ISB:misses: 954753
ISB:misses_by_poll: 7150
ISB:Stream end: 663315
ISB:No Prediction: 150803 14.5288
ISB:No translation: 674294963 64963.5
ISB:Predictions: 1568345 151.099

NL_L1: 
NL:times selected: 4774
NL:pref_reqs: 4774
NL:pref_reqs_filtered_out: 790
NL:pref_filled: 2435
NL:pref_useful: 483
NL:pref_late: 139
NL:misses: 5056
NL:misses_by_poll: 0

total selections: 2956759
total_filled: 996243
total_useful: 699535
total_late: 18953
total_polluted: 7152
total_misses_after_warmup: 667418
conflicts: 50713

test: 725239

DRAM Statistics
 CHANNEL 0
 RQ ROW_BUFFER_HIT:     667445  ROW_BUFFER_MISS:     848660
 DBUS_CONGESTED:        152
 WQ ROW_BUFFER_HIT:       1150  ROW_BUFFER_MISS:      17166  FULL:          0

 AVG_CONGESTED_CYCLE: 4
 All warmup complete: 2
Channel 0 Bank busy for read cycles: 0
Channel 0 Bank busy for write cycles: 0
Channel 0
Rank 0
0banks busy for read cycles: 86571717
0banks busy for write cycles: 13921
1banks busy for read cycles: 25040158
1banks busy for write cycles: 2264978
2banks busy for read cycles: 18379807
2banks busy for write cycles: 429841
3banks busy for read cycles: 11866406
3banks busy for write cycles: 101536
4banks busy for read cycles: 7283646
4banks busy for write cycles: 25876
5banks busy for read cycles: 4031436
5banks busy for write cycles: 8008
6banks busy for read cycles: 1707063
6banks busy for write cycles: 1226
7banks busy for read cycles: 461877
7banks busy for write cycles: 188
8banks busy for read cycles: 63522
8banks busy for write cycles: 0

CPU 0 Branch Prediction Accuracy: 94.9771% MPKI: 13.0224 Average ROB Occupancy at Mispredict: 41.8699
Branch types
NOT_BRANCH: 37037120 74.0742%
BRANCH_DIRECT_JUMP: 125745 0.25149%
BRANCH_INDIRECT: 22046 0.044092%
BRANCH_CONDITIONAL: 11639280 23.2786%
BRANCH_DIRECT_CALL: 323606 0.647212%
BRANCH_INDIRECT_CALL: 264324 0.528648%
BRANCH_RETURN: 587930 1.17586%
BRANCH_OTHER: 0 0%

DRAM PAGES: 1048576
Allocated PAGES: 11043
