
*** ChampSim Multicore Out-of-Order Simulator ***

Warmup Instructions: 50000000
Simulation Instructions: 50000000
Number of CPUs: 1
LLC sets: 2048
LLC ways: 16
Off-chip DRAM Size: 4096 MB Channels: 1 Width: 64-bit Data Rate: 6400 MT/s
CPU 0 runs traces/SPEC-CPU2017/623.xalancbmk_s-10B.champsimtrace.xz
.xz
CPU 0 Bimodal branch predictor
BTB has LRU replacement policy
ITLB has LRU replacement policy
DTLB has LRU replacement policy
STLB has LRU replacement policy
L1I has LRU replacement policy
L1D has LRU replacement policy
L2C has LRU replacement policy
LLC has LRU replacement policy
Heartbeat CPU 0 instructions: 10000001 cycles: 3143235 heartbeat IPC: 3.18144 cumulative IPC: 3.18144 (Simulation time: 0 hr 3 min 55 sec) 
Heartbeat CPU 0 instructions: 20000000 cycles: 6264256 heartbeat IPC: 3.20408 cumulative IPC: 3.19272 (Simulation time: 0 hr 7 min 55 sec) 
Heartbeat CPU 0 instructions: 30000001 cycles: 9404393 heartbeat IPC: 3.18457 cumulative IPC: 3.19 (Simulation time: 0 hr 11 min 56 sec) 
Heartbeat CPU 0 instructions: 40000000 cycles: 12560614 heartbeat IPC: 3.16835 cumulative IPC: 3.18456 (Simulation time: 0 hr 15 min 58 sec) 
Heartbeat CPU 0 instructions: 50000000 cycles: 15727236 heartbeat IPC: 3.15794 cumulative IPC: 3.1792 (Simulation time: 0 hr 20 min 8 sec) 

Warmup complete CPU 0 instructions: 50000004 cycles: 15727237 (Simulation time: 0 hr 20 min 8 sec) 

Heartbeat CPU 0 instructions: 60000000 cycles: 46082828 heartbeat IPC: 0.329429 cumulative IPC: 0.329428 (Simulation time: 0 hr 21 min 11 sec) 
Heartbeat CPU 0 instructions: 70000000 cycles: 77504049 heartbeat IPC: 0.318256 cumulative IPC: 0.323746 (Simulation time: 0 hr 22 min 16 sec) 
Heartbeat CPU 0 instructions: 80000000 cycles: 109128986 heartbeat IPC: 0.316206 cumulative IPC: 0.321193 (Simulation time: 0 hr 23 min 24 sec) 
Heartbeat CPU 0 instructions: 90000000 cycles: 139419249 heartbeat IPC: 0.330139 cumulative IPC: 0.323384 (Simulation time: 0 hr 24 min 30 sec) 
Heartbeat CPU 0 instructions: 100000000 cycles: 171307652 heartbeat IPC: 0.313594 cumulative IPC: 0.321377 (Simulation time: 0 hr 25 min 38 sec) 
Finished CPU 0 instructions: 50000003 cycles: 155580449 cumulative IPC: 0.321377 (Simulation time: 0 hr 25 min 38 sec) 

ChampSim completed all CPUs

Region of Interest Statistics

CPU 0 cumulative IPC: 0.321377 instructions: 50000003 cycles: 155580449
ITLB TOTAL     ACCESS:    7900607  HIT:    7866698  MISS:      33909  HIT %:    99.5708  MISS %:   0.429195   MPKI: 0.67818
ITLB LOAD TRANSLATION ACCESS:    7900607  HIT:    7866698  MISS:      33909  HIT %:    99.5708  MISS %:   0.429195   MPKI: 0.67818
ITLB PREFETCH  REQUESTED:          0  ISSUED:          0  USEFUL:          0  USELESS:          0
ITLB USEFUL LOAD PREFETCHES:          0 PREFETCH ISSUED TO LOWER LEVEL:          0  ACCURACY: -nan
ITLB TIMELY PREFETCHES:          0 LATE PREFETCHES: 0 DROPPED PREFETCHES: 0
ITLB PREFETCHES SAME FILL-ORIGIN LEVEL: 0 DIFFERENT FILL-ORIGIN LEVEL: 0
ITLB AVERAGE MISS LATENCY: 18.1405 cycles
ITLB RQ	ACCESS:    9060681	FORWARD:          0	MERGED:    1150989	TO_CACHE:    7909692

DTLB TOTAL     ACCESS:   10315012  HIT:    9977691  MISS:     337321  HIT %:    96.7298  MISS %:    3.27019   MPKI: 6.74642
DTLB LOAD TRANSLATION ACCESS:   10315012  HIT:    9977691  MISS:     337321  HIT %:    96.7298  MISS %:    3.27019   MPKI: 6.74642
DTLB PREFETCH  REQUESTED:          0  ISSUED:          0  USEFUL:          0  USELESS:          0
DTLB USEFUL LOAD PREFETCHES:          0 PREFETCH ISSUED TO LOWER LEVEL:          0  ACCURACY: -nan
DTLB TIMELY PREFETCHES:          0 LATE PREFETCHES: 0 DROPPED PREFETCHES: 0
DTLB PREFETCHES SAME FILL-ORIGIN LEVEL: 0 DIFFERENT FILL-ORIGIN LEVEL: 0
DTLB AVERAGE MISS LATENCY: 15.9764 cycles
DTLB RQ	ACCESS:   11392790	FORWARD:          0	MERGED:    1050529	TO_CACHE:   10342261

STLB TOTAL     ACCESS:    1998598  HIT:    1743281  MISS:     255317  HIT %:    87.2252  MISS %:    12.7748   MPKI: 5.10634
STLB LOAD TRANSLATION ACCESS:     371230  HIT:     322165  MISS:      49065  HIT %:    86.7831  MISS %:    13.2169   MPKI: 0.9813
STLB TRANSLATION FROM L1D PREFETCHER ACCESS:    1627368  HIT:    1421116  MISS:     206252  HIT %:     87.326  MISS %:     12.674   MPKI: 4.12504
STLB PREFETCH  REQUESTED:          0  ISSUED:          0  USEFUL:     205759  USELESS:        491
STLB USEFUL LOAD PREFETCHES:     205759 PREFETCH ISSUED TO LOWER LEVEL:          0  ACCURACY: inf
STLB TIMELY PREFETCHES:     205759 LATE PREFETCHES: 91 DROPPED PREFETCHES: 0
STLB PREFETCHES SAME FILL-ORIGIN LEVEL: 0 DIFFERENT FILL-ORIGIN LEVEL: 0
STLB AVERAGE MISS LATENCY: 140.425 cycles
STLB RQ	ACCESS:    2399876	FORWARD:          0	MERGED:     400039	TO_CACHE:    1999837

STLB Hit, L1D data hit: 0
STLB Hit, L2C data hit: 0
STLB Hit, LLC data hit: 0
STLB Hit, LLC data miss: 0
STLB STLB hints to L2: 0
L1D TOTAL     ACCESS:   13189310  HIT:   11151302  MISS:    2038008  HIT %:     84.548  MISS %:     15.452   MPKI: 40.7602
L1D LOAD      ACCESS:    8974672  HIT:    8343558  MISS:     631114  HIT %:    92.9678  MISS %:    7.03217   MPKI: 12.6223
L1D RFO       ACCESS:    2333298  HIT:    2311777  MISS:      21521  HIT %:    99.0777  MISS %:   0.922343   MPKI: 0.43042
L1D PREFETCH  ACCESS:    1881340  HIT:     495967  MISS:    1385373  HIT %:    26.3624  MISS %:    73.6376   MPKI: 27.7075
AGUS PREFETCH L1 MISS: 0
L1D PREFETCH  REQUESTED:    4205210  ISSUED:    4057295  USEFUL:     717709  USELESS:     667676
L1D USEFUL LOAD PREFETCHES:     717709 PREFETCH ISSUED TO LOWER LEVEL:    1420713  ACCURACY: 50.5175
L1D TIMELY PREFETCHES:     717709 LATE PREFETCHES: 34804 DROPPED PREFETCHES: 0
L1D PREFETCHES SAME FILL-ORIGIN LEVEL: 1420713 DIFFERENT FILL-ORIGIN LEVEL: 0
L1D AVERAGE MISS LATENCY: 167.975 cycles
L1D RQ	ACCESS:   14679263	FORWARD:          0	MERGED:    5620918	TO_CACHE:    8998638
L1D WQ	ACCESS:    2425925	FORWARD:      59710	MERGED:      31773	TO_CACHE:    2394152
L1D PQ	ACCESS:    2028649	FORWARD:          0	MERGED:          0	TO_CACHE:    2028646

L1D UNIQUE REGIONS ACCESSED: 0
L1D REGIONS CONFLICTS: 0
L1D Cross Page Prefetch Requests: 1370474
L1D Same Page Prefetch Requests: 2871816
L1D ROI Sum of L1D PQ occupancy: 96099224
L1D PREFETCHES PUSHED FROM L2C: 0
L1I TOTAL     ACCESS:    9009140  HIT:    8833109  MISS:     176031  HIT %:    98.0461  MISS %:    1.95392   MPKI: 3.52062
L1I LOAD      ACCESS:    9009140  HIT:    8833109  MISS:     176031  HIT %:    98.0461  MISS %:    1.95392   MPKI: 3.52062
L1I PREFETCH  REQUESTED:          0  ISSUED:          0  USEFUL:          0  USELESS:          0
L1I USEFUL LOAD PREFETCHES:          0 PREFETCH ISSUED TO LOWER LEVEL:          0  ACCURACY: -nan
L1I TIMELY PREFETCHES:          0 LATE PREFETCHES: 0 DROPPED PREFETCHES: 0
L1I PREFETCHES SAME FILL-ORIGIN LEVEL: 0 DIFFERENT FILL-ORIGIN LEVEL: 0
L1I AVERAGE MISS LATENCY: 39.7565 cycles
L1I RQ	ACCESS:   15172938	FORWARD:          0	MERGED:    6112257	TO_CACHE:    9060681

BTB TOTAL     ACCESS:    8240388  HIT:    8162326  MISS:      78062  HIT %:    99.0527  MISS %:    0.94731   MPKI: 1.56124
BTB BRANCH_DIRECT_JUMP	ACCESS:     125745  HIT:     125105  MISS:        640
BTB BRANCH_INDIRECT	ACCESS:      22046  HIT:       8847  MISS:      13199
BTB BRANCH_CONDITIONAL	ACCESS:    6916737  HIT:    6913889  MISS:       2848
BTB BRANCH_DIRECT_CALL	ACCESS:     323606  HIT:     322531  MISS:       1075
BTB BRANCH_INDIRECT_CALL	ACCESS:     264324  HIT:     261288  MISS:       3036
BTB BRANCH_RETURN	ACCESS:     587930  HIT:     530666  MISS:      57264
BTB BRANCH_OTHER ACCESS:          0  HIT:          0  MISS:          0

L2C TOTAL     ACCESS:    2513568  HIT:     551922  MISS:    1961646  HIT %:    21.9577  MISS %:    78.0423   MPKI: 39.2329
L2C LOAD      ACCESS:     772340  HIT:     213351  MISS:     558989  HIT %:     27.624  MISS %:     72.376   MPKI: 11.1798
L2C DATA LOAD MPKI: 10.3925
L2C INSTRUCTION LOAD MPKI: 0.7873
L2C RFO       ACCESS:      20979  HIT:       7980  MISS:      12999  HIT %:     38.038  MISS %:     61.962   MPKI: 0.25998
L2C PREFETCH  ACCESS:    1420713  HIT:      93074  MISS:    1327639  HIT %:    6.55122  MISS %:    93.4488   MPKI: 26.5528
AGUS PREFETCH L1 MISS: 0
L2C DATA PREFETCH MPKI: 26.5528
L2C INSTRUCTION PREFETCH MPKI: 0
L2C WRITEBACK ACCESS:      43017  HIT:      42805  MISS:        212  HIT %:    99.5072  MISS %:   0.492828   MPKI: 0.00424
L2C LOAD TRANSLATION ACCESS:      49287  HIT:      45685  MISS:       3602  HIT %:    92.6918  MISS %:    7.30822   MPKI: 0.07204
L2C TRANSLATION FROM L1D PREFETCHER ACCESS:     207232  HIT:     149027  MISS:      58205  HIT %:    71.9131  MISS %:    28.0869   MPKI: 1.1641
L2C PREFETCH  REQUESTED:          0  ISSUED:          0  USEFUL:      73814  USELESS:    1312428
L2C USEFUL LOAD PREFETCHES:      73814 PREFETCH ISSUED TO LOWER LEVEL:    1327639  ACCURACY: 5.55979
L2C TIMELY PREFETCHES:      73814 LATE PREFETCHES: 0 DROPPED PREFETCHES: 0
L2C PREFETCHES SAME FILL-ORIGIN LEVEL: 0 DIFFERENT FILL-ORIGIN LEVEL: 0
L2C AVERAGE MISS LATENCY: 167.718 cycles
L2C RQ	ACCESS:    1049845	FORWARD:          0	MERGED:          0	TO_CACHE:    1049838
L2C WQ	ACCESS:      43017	FORWARD:          7	MERGED:          0	TO_CACHE:      43017
L2C PQ	ACCESS:    1420713	FORWARD:          0	MERGED:          0	TO_CACHE:    1420713

L2C Instructions Evicting Data 37352
L2C Translations Evicting Data 59019
L2C Data Evicting Data 1763873
L2C Instructions Evicting Instructions 912
L2C Translations Evicting Instructions 980
L2C Data Evicting Instructions 37489
L2C Instructions Evicting Translations 1101
L2C Translations Evicting Translations 1808
L2C Data Evicting Translations 58900
L2C Dense regions hint from L2: 0
PSCL5 TOTAL     ACCESS:     255317  HIT:     255317  MISS:          0  HIT %:        100  MISS %:          0   MPKI: 0
PSCL5 LOAD TRANSLATION ACCESS:      48974  HIT:      48974  MISS:          0  HIT %:        100  MISS %:          0   MPKI: 0
PSCL5 TRANSLATION FROM L1D PREFETCHER ACCESS:     206343  HIT:     206343  MISS:          0  HIT %:        100  MISS %:          0   MPKI: 0
PSCL5 PREFETCH  REQUESTED:          0  ISSUED:          0  USEFUL:          0  USELESS:          0
PSCL5 USEFUL LOAD PREFETCHES:          0 PREFETCH ISSUED TO LOWER LEVEL:          0  ACCURACY: -nan
PSCL5 TIMELY PREFETCHES:          0 LATE PREFETCHES: 0 DROPPED PREFETCHES: 0
PSCL5 PREFETCHES SAME FILL-ORIGIN LEVEL: 0 DIFFERENT FILL-ORIGIN LEVEL: 0

PSCL4 TOTAL     ACCESS:     255317  HIT:     255317  MISS:          0  HIT %:        100  MISS %:          0   MPKI: 0
PSCL4 LOAD TRANSLATION ACCESS:      48974  HIT:      48974  MISS:          0  HIT %:        100  MISS %:          0   MPKI: 0
PSCL4 TRANSLATION FROM L1D PREFETCHER ACCESS:     206343  HIT:     206343  MISS:          0  HIT %:        100  MISS %:          0   MPKI: 0
PSCL4 PREFETCH  REQUESTED:          0  ISSUED:          0  USEFUL:          0  USELESS:          0
PSCL4 USEFUL LOAD PREFETCHES:          0 PREFETCH ISSUED TO LOWER LEVEL:          0  ACCURACY: -nan
PSCL4 TIMELY PREFETCHES:          0 LATE PREFETCHES: 0 DROPPED PREFETCHES: 0
PSCL4 PREFETCHES SAME FILL-ORIGIN LEVEL: 0 DIFFERENT FILL-ORIGIN LEVEL: 0

PSCL3 TOTAL     ACCESS:     255317  HIT:     255317  MISS:          0  HIT %:        100  MISS %:          0   MPKI: 0
PSCL3 LOAD TRANSLATION ACCESS:      48974  HIT:      48974  MISS:          0  HIT %:        100  MISS %:          0   MPKI: 0
PSCL3 TRANSLATION FROM L1D PREFETCHER ACCESS:     206343  HIT:     206343  MISS:          0  HIT %:        100  MISS %:          0   MPKI: 0
PSCL3 PREFETCH  REQUESTED:          0  ISSUED:          0  USEFUL:          0  USELESS:          0
PSCL3 USEFUL LOAD PREFETCHES:          0 PREFETCH ISSUED TO LOWER LEVEL:          0  ACCURACY: -nan
PSCL3 TIMELY PREFETCHES:          0 LATE PREFETCHES: 0 DROPPED PREFETCHES: 0
PSCL3 PREFETCHES SAME FILL-ORIGIN LEVEL: 0 DIFFERENT FILL-ORIGIN LEVEL: 0

PSCL2 TOTAL     ACCESS:     255317  HIT:     254115  MISS:       1202  HIT %:    99.5292  MISS %:   0.470787   MPKI: 0.02404
PSCL2 LOAD TRANSLATION ACCESS:      49863  HIT:      48661  MISS:       1202  HIT %:    97.5894  MISS %:    2.41061   MPKI: 0.02404
PSCL2 TRANSLATION FROM L1D PREFETCHER ACCESS:     205454  HIT:     205454  MISS:          0  HIT %:        100  MISS %:          0   MPKI: 0
PSCL2 PREFETCH  REQUESTED:          0  ISSUED:          0  USEFUL:          0  USELESS:          0
PSCL2 USEFUL LOAD PREFETCHES:          0 PREFETCH ISSUED TO LOWER LEVEL:          0  ACCURACY: -nan
PSCL2 TIMELY PREFETCHES:          0 LATE PREFETCHES: 0 DROPPED PREFETCHES: 0
PSCL2 PREFETCHES SAME FILL-ORIGIN LEVEL: 0 DIFFERENT FILL-ORIGIN LEVEL: 0

LLC TOTAL     ACCESS:    1984643  HIT:     146057  MISS:    1838586  HIT %:    7.35936  MISS %:    92.6406   MPKI: 36.7717
LLC LOAD      ACCESS:     558989  HIT:      47911  MISS:     511078  HIT %:    8.57101  MISS %:     91.429   MPKI: 10.2216
LLC RFO       ACCESS:      12999  HIT:       1725  MISS:      11274  HIT %:    13.2703  MISS %:    86.7297   MPKI: 0.22548
LLC PREFETCH  ACCESS:    1327639  HIT:      70612  MISS:    1257027  HIT %:    5.31861  MISS %:    94.6814   MPKI: 25.1405
AGUS PREFETCH L1 MISS: 0
LLC WRITEBACK ACCESS:      23209  HIT:      23086  MISS:        123  HIT %:      99.47  MISS %:   0.529967   MPKI: 0.00246
LLC LOAD TRANSLATION ACCESS:       3602  HIT:        866  MISS:       2736  HIT %:    24.0422  MISS %:    75.9578   MPKI: 0.05472
LLC TRANSLATION FROM L1D PREFETCHER ACCESS:      58205  HIT:       1857  MISS:      56348  HIT %:    3.19045  MISS %:    96.8096   MPKI: 1.12696
LLC PREFETCH  REQUESTED:          0  ISSUED:          0  USEFUL:      11693  USELESS:    1303876
LLC USEFUL LOAD PREFETCHES:      11693 PREFETCH ISSUED TO LOWER LEVEL:    1257027  ACCURACY: 0.930211
LLC TIMELY PREFETCHES:      11693 LATE PREFETCHES: 0 DROPPED PREFETCHES: 0
LLC PREFETCHES SAME FILL-ORIGIN LEVEL: 0 DIFFERENT FILL-ORIGIN LEVEL: 0
LLC AVERAGE MISS LATENCY: 146.937 cycles
LLC RQ	ACCESS:     633795	FORWARD:          0	MERGED:          0	TO_CACHE:     633795
LLC WQ	ACCESS:      23209	FORWARD:          0	MERGED:          0	TO_CACHE:      23209
LLC PQ	ACCESS:    1327639	FORWARD:          0	MERGED:          0	TO_CACHE:    1327639

LLC Dense regions hint to LLC: 0

RAW hits: 62798
Loads Generated: 14742061
Loads sent to L1D: 14679263
Stores Generated: 2425922
Stores sent to L1D: 2425925
Major fault: 0 Minor fault: 11043
Allocated PAGES: 11043

stream: 
stream:times selected: 3434128
stream:pref_reqs: 3337285
stream:pref_reqs_filtered_out: 795385
stream:pref_filled: 1367204
stream:pref_useful: 208164
stream:pref_late: 49543
stream:misses: 192954
stream:misses_by_poll: 0

CS: 
CS:times selected: 109040
CS:pref_reqs: 310358
CS:pref_reqs_filtered_out: 114621
CS:pref_filled: 97018
CS:pref_useful: 67067
CS:pref_late: 843
CS:misses: 8323
CS:misses_by_poll: 128

CPLX: 
CPLX:times selected: 3293398
CPLX:pref_reqs: 292591
CPLX:pref_reqs_filtered_out: 112690
CPLX:pref_filled: 116486
CPLX:pref_useful: 13928
CPLX:pref_late: 441
CPLX:misses: 530929
CPLX:misses_by_poll: 96

ISB: 
ISB:times selected:814366
ISB:pref_reqs: 1909919
ISB:pref_reqs_filtered_out: 172071
ISB:pref_filled: 1359777
ISB:pref_useful: 1313193
ISB:pref_late: 947
ISB:misses: 286690
ISB:misses_by_poll: 4907
ISB:Stream end: 589808
ISB:No Prediction: 2619765 76.2861
ISB:No translation: 599285900 17450.9
ISB:Predictions: 1422262 41.4155

NL_L1: 
NL:times selected: 26011
NL:pref_reqs: 26011
NL:pref_reqs_filtered_out: 5022
NL:pref_filled: 9623
NL:pref_useful: 1278
NL:pref_late: 672
NL:misses: 8334
NL:misses_by_poll: 4

total selections: 7676943
total_filled: 1385373
total_useful: 717709
total_late: 53599
total_polluted: 5135
total_misses_after_warmup: 655079
conflicts: 1937771

test: 2218477

DRAM Statistics
 CHANNEL 0
 RQ ROW_BUFFER_HIT:     913815  ROW_BUFFER_MISS:     924648
 DBUS_CONGESTED:        244
 WQ ROW_BUFFER_HIT:       1699  ROW_BUFFER_MISS:      16682  FULL:          0

 AVG_CONGESTED_CYCLE: 4
 All warmup complete: 2
Channel 0 Bank busy for read cycles: 0
Channel 0 Bank busy for write cycles: 0
Channel 0
Rank 0
0banks busy for read cycles: 77014848
0banks busy for write cycles: 12971
1banks busy for read cycles: 27034276
1banks busy for write cycles: 2264425
2banks busy for read cycles: 18440816
2banks busy for write cycles: 505615
3banks busy for read cycles: 12789965
3banks busy for write cycles: 147167
4banks busy for read cycles: 8719555
4banks busy for write cycles: 41242
5banks busy for read cycles: 5292273
5banks busy for write cycles: 13623
6banks busy for read cycles: 2445186
6banks busy for write cycles: 3306
7banks busy for read cycles: 741444
7banks busy for write cycles: 240
8banks busy for read cycles: 113262
8banks busy for write cycles: 236

CPU 0 Branch Prediction Accuracy: 94.9771% MPKI: 13.0224 Average ROB Occupancy at Mispredict: 41.8583
Branch types
NOT_BRANCH: 37037111 74.0742%
BRANCH_DIRECT_JUMP: 125745 0.25149%
BRANCH_INDIRECT: 22046 0.044092%
BRANCH_CONDITIONAL: 11639280 23.2786%
BRANCH_DIRECT_CALL: 323606 0.647212%
BRANCH_INDIRECT_CALL: 264324 0.528648%
BRANCH_RETURN: 587930 1.17586%
BRANCH_OTHER: 0 0%

DRAM PAGES: 1048576
Allocated PAGES: 11043
