
*** ChampSim Multicore Out-of-Order Simulator ***

Warmup Instructions: 50000000
Simulation Instructions: 50000000
Number of CPUs: 1
LLC sets: 2048
LLC ways: 16
Off-chip DRAM Size: 4096 MB Channels: 1 Width: 64-bit Data Rate: 6400 MT/s
CPU 0 runs traces/SPEC-CPU2017/625.x264_s-12B.champsimtrace.xz
.xz
CPU 0 Bimodal branch predictor
BTB has LRU replacement policy
ITLB has LRU replacement policy
DTLB has LRU replacement policy
STLB has LRU replacement policy
L1I has LRU replacement policy
L1D has LRU replacement policy
L2C has LRU replacement policy
LLC has LRU replacement policy
Heartbeat CPU 0 instructions: 10000001 cycles: 2776945 heartbeat IPC: 3.60108 cumulative IPC: 3.60108 (Simulation time: 0 hr 0 min 30 sec) 
Heartbeat CPU 0 instructions: 20000000 cycles: 5565901 heartbeat IPC: 3.58557 cumulative IPC: 3.59331 (Simulation time: 0 hr 1 min 1 sec) 
Heartbeat CPU 0 instructions: 30000001 cycles: 8351318 heartbeat IPC: 3.59013 cumulative IPC: 3.59225 (Simulation time: 0 hr 1 min 31 sec) 
Heartbeat CPU 0 instructions: 40000000 cycles: 11136848 heartbeat IPC: 3.58998 cumulative IPC: 3.59168 (Simulation time: 0 hr 2 min 2 sec) 
Heartbeat CPU 0 instructions: 50000001 cycles: 13925006 heartbeat IPC: 3.5866 cumulative IPC: 3.59066 (Simulation time: 0 hr 2 min 32 sec) 

Warmup complete CPU 0 instructions: 50000001 cycles: 13925006 (Simulation time: 0 hr 2 min 32 sec) 

Heartbeat CPU 0 instructions: 60000000 cycles: 25243801 heartbeat IPC: 0.883486 cumulative IPC: 0.883486 (Simulation time: 0 hr 3 min 4 sec) 
Heartbeat CPU 0 instructions: 70000001 cycles: 36812832 heartbeat IPC: 0.864377 cumulative IPC: 0.873827 (Simulation time: 0 hr 3 min 36 sec) 
Heartbeat CPU 0 instructions: 80000000 cycles: 48283820 heartbeat IPC: 0.871764 cumulative IPC: 0.873138 (Simulation time: 0 hr 4 min 7 sec) 
Heartbeat CPU 0 instructions: 90000002 cycles: 59788192 heartbeat IPC: 0.869235 cumulative IPC: 0.872159 (Simulation time: 0 hr 4 min 39 sec) 
Heartbeat CPU 0 instructions: 100000000 cycles: 71358297 heartbeat IPC: 0.864296 cumulative IPC: 0.870575 (Simulation time: 0 hr 5 min 11 sec) 
Finished CPU 0 instructions: 50000001 cycles: 57433299 cumulative IPC: 0.870575 (Simulation time: 0 hr 5 min 11 sec) 

ChampSim completed all CPUs

Region of Interest Statistics

CPU 0 cumulative IPC: 0.870575 instructions: 50000001 cycles: 57433299
ITLB TOTAL     ACCESS:    7170742  HIT:    7170741  MISS:          1  HIT %:        100  MISS %: 1.39456e-05   MPKI: 2e-05
ITLB LOAD TRANSLATION ACCESS:    7170742  HIT:    7170741  MISS:          1  HIT %:        100  MISS %: 1.39456e-05   MPKI: 2e-05
ITLB PREFETCH  REQUESTED:          0  ISSUED:          0  USEFUL:          0  USELESS:          0
ITLB USEFUL LOAD PREFETCHES:          0 PREFETCH ISSUED TO LOWER LEVEL:          0  ACCURACY: -nan
ITLB TIMELY PREFETCHES:          0 LATE PREFETCHES: 0 DROPPED PREFETCHES: 0
ITLB PREFETCHES SAME FILL-ORIGIN LEVEL: 0 DIFFERENT FILL-ORIGIN LEVEL: 0
ITLB AVERAGE MISS LATENCY: 150 cycles
ITLB RQ	ACCESS:    8838357	FORWARD:          0	MERGED:    1667615	TO_CACHE:    7170742

DTLB TOTAL     ACCESS:    6341128  HIT:    6330517  MISS:      10611  HIT %:    99.8327  MISS %:   0.167336   MPKI: 0.21222
DTLB LOAD TRANSLATION ACCESS:    6341128  HIT:    6330517  MISS:      10611  HIT %:    99.8327  MISS %:   0.167336   MPKI: 0.21222
DTLB PREFETCH  REQUESTED:          0  ISSUED:          0  USEFUL:          0  USELESS:          0
DTLB USEFUL LOAD PREFETCHES:          0 PREFETCH ISSUED TO LOWER LEVEL:          0  ACCURACY: -nan
DTLB TIMELY PREFETCHES:          0 LATE PREFETCHES: 0 DROPPED PREFETCHES: 0
DTLB PREFETCHES SAME FILL-ORIGIN LEVEL: 0 DIFFERENT FILL-ORIGIN LEVEL: 0
DTLB AVERAGE MISS LATENCY: 11.3395 cycles
DTLB RQ	ACCESS:    7654626	FORWARD:          0	MERGED:    1312067	TO_CACHE:    6342559

STLB TOTAL     ACCESS:      21837  HIT:      21684  MISS:        153  HIT %:    99.2994  MISS %:   0.700646   MPKI: 0.00306
STLB LOAD TRANSLATION ACCESS:      10612  HIT:      10459  MISS:        153  HIT %:    98.5582  MISS %:    1.44176   MPKI: 0.00306
STLB TRANSLATION FROM L1D PREFETCHER ACCESS:      11225  HIT:      11225  MISS:          0  HIT %:        100  MISS %:          0   MPKI: 0
STLB PREFETCH  REQUESTED:          0  ISSUED:          0  USEFUL:          0  USELESS:          0
STLB USEFUL LOAD PREFETCHES:          0 PREFETCH ISSUED TO LOWER LEVEL:          0  ACCURACY: -nan
STLB TIMELY PREFETCHES:          0 LATE PREFETCHES: 0 DROPPED PREFETCHES: 0
STLB PREFETCHES SAME FILL-ORIGIN LEVEL: 0 DIFFERENT FILL-ORIGIN LEVEL: 0
STLB AVERAGE MISS LATENCY: 160.431 cycles
STLB RQ	ACCESS:      54610	FORWARD:          0	MERGED:      32773	TO_CACHE:      21837

STLB Hit, L1D data hit: 0
STLB Hit, L2C data hit: 0
STLB Hit, LLC data hit: 0
STLB Hit, LLC data miss: 0
STLB STLB hints to L2: 0
L1D TOTAL     ACCESS:    7692811  HIT:    7656768  MISS:      36043  HIT %:    99.5315  MISS %:   0.468528   MPKI: 0.72086
L1D LOAD      ACCESS:    4501906  HIT:    4491201  MISS:      10705  HIT %:    99.7622  MISS %:   0.237788   MPKI: 0.2141
L1D RFO       ACCESS:    3147489  HIT:    3146832  MISS:        657  HIT %:    99.9791  MISS %:  0.0208738   MPKI: 0.01314
L1D PREFETCH  ACCESS:      43416  HIT:      18735  MISS:      24681  HIT %:    43.1523  MISS %:    56.8477   MPKI: 0.49362
AGUS PREFETCH L1 MISS: 0
L1D PREFETCH  REQUESTED:      99070  ISSUED:      88017  USEFUL:       8455  USELESS:      16260
L1D USEFUL LOAD PREFETCHES:       8455 PREFETCH ISSUED TO LOWER LEVEL:      25050  ACCURACY: 33.7525
L1D TIMELY PREFETCHES:       8455 LATE PREFETCHES: 369 DROPPED PREFETCHES: 0
L1D PREFETCHES SAME FILL-ORIGIN LEVEL: 25050 DIFFERENT FILL-ORIGIN LEVEL: 0
L1D AVERAGE MISS LATENCY: 52.8528 cycles
L1D RQ	ACCESS:   12029890	FORWARD:          0	MERGED:    7504783	TO_CACHE:    4506104
L1D WQ	ACCESS:    3150756	FORWARD:      19003	MERGED:       2234	TO_CACHE:    3148522
L1D PQ	ACCESS:      44019	FORWARD:          0	MERGED:         21	TO_CACHE:      43998

L1D UNIQUE REGIONS ACCESSED: 0
L1D REGIONS CONFLICTS: 0
L1D Cross Page Prefetch Requests: 6084
L1D Same Page Prefetch Requests: 92352
L1D ROI Sum of L1D PQ occupancy: 637017
L1D PREFETCHES PUSHED FROM L2C: 0
L1I TOTAL     ACCESS:    8838345  HIT:    8838315  MISS:         30  HIT %:    99.9997  MISS %: 0.00033943   MPKI: 0.0006
L1I LOAD      ACCESS:    8838345  HIT:    8838315  MISS:         30  HIT %:    99.9997  MISS %: 0.00033943   MPKI: 0.0006
L1I PREFETCH  REQUESTED:          0  ISSUED:          0  USEFUL:          0  USELESS:          0
L1I USEFUL LOAD PREFETCHES:          0 PREFETCH ISSUED TO LOWER LEVEL:          0  ACCURACY: -nan
L1I TIMELY PREFETCHES:          0 LATE PREFETCHES: 0 DROPPED PREFETCHES: 0
L1I PREFETCHES SAME FILL-ORIGIN LEVEL: 0 DIFFERENT FILL-ORIGIN LEVEL: 0
L1I AVERAGE MISS LATENCY: 186.3 cycles
L1I RQ	ACCESS:   12159532	FORWARD:          0	MERGED:    3321175	TO_CACHE:    8838357

BTB TOTAL     ACCESS:    1864249  HIT:    1740734  MISS:     123515  HIT %:    93.3745  MISS %:    6.62546   MPKI: 2.4703
BTB BRANCH_DIRECT_JUMP	ACCESS:      36659  HIT:      36640  MISS:         19
BTB BRANCH_INDIRECT	ACCESS:       3046  HIT:       3045  MISS:          1
BTB BRANCH_CONDITIONAL	ACCESS:    1548181  HIT:    1548108  MISS:         73
BTB BRANCH_DIRECT_CALL	ACCESS:      71241  HIT:      71231  MISS:         10
BTB BRANCH_INDIRECT_CALL	ACCESS:      66940  HIT:      66909  MISS:         31
BTB BRANCH_RETURN	ACCESS:     138182  HIT:      14801  MISS:     123381
BTB BRANCH_OTHER ACCESS:          0  HIT:          0  MISS:          0

L2C TOTAL     ACCESS:      36936  HIT:      20750  MISS:      16186  HIT %:    56.1783  MISS %:    43.8217   MPKI: 0.32372
L2C LOAD      ACCESS:      10366  HIT:       5158  MISS:       5208  HIT %:    49.7588  MISS %:    50.2412   MPKI: 0.10416
L2C DATA LOAD MPKI: 0.10356
L2C INSTRUCTION LOAD MPKI: 0.0006
L2C RFO       ACCESS:        657  HIT:        251  MISS:        406  HIT %:     38.204  MISS %:     61.796   MPKI: 0.00812
L2C PREFETCH  ACCESS:      25050  HIT:      14520  MISS:      10530  HIT %:    57.9641  MISS %:    42.0359   MPKI: 0.2106
AGUS PREFETCH L1 MISS: 0
L2C DATA PREFETCH MPKI: 0.2106
L2C INSTRUCTION PREFETCH MPKI: 0
L2C WRITEBACK ACCESS:        710  HIT:        700  MISS:         10  HIT %:    98.5915  MISS %:    1.40845   MPKI: 0.0002
L2C LOAD TRANSLATION ACCESS:        153  HIT:        121  MISS:         32  HIT %:     79.085  MISS %:     20.915   MPKI: 0.00064
L2C PREFETCH  REQUESTED:          0  ISSUED:          0  USEFUL:       3300  USELESS:       8126
L2C USEFUL LOAD PREFETCHES:       3300 PREFETCH ISSUED TO LOWER LEVEL:      10530  ACCURACY: 31.339
L2C TIMELY PREFETCHES:       3300 LATE PREFETCHES: 0 DROPPED PREFETCHES: 0
L2C PREFETCHES SAME FILL-ORIGIN LEVEL: 0 DIFFERENT FILL-ORIGIN LEVEL: 0
L2C AVERAGE MISS LATENCY: 83.0153 cycles
L2C RQ	ACCESS:      11176	FORWARD:          0	MERGED:          0	TO_CACHE:      11176
L2C WQ	ACCESS:        710	FORWARD:          0	MERGED:          0	TO_CACHE:        710
L2C PQ	ACCESS:      25050	FORWARD:          0	MERGED:          0	TO_CACHE:      25050

L2C Instructions Evicting Data 30
L2C Translations Evicting Data 31
L2C Data Evicting Data 16052
L2C Instructions Evicting Instructions 0
L2C Translations Evicting Instructions 0
L2C Data Evicting Instructions 28
L2C Instructions Evicting Translations 0
L2C Translations Evicting Translations 1
L2C Data Evicting Translations 34
L2C Dense regions hint from L2: 0
PSCL5 TOTAL     ACCESS:        153  HIT:        153  MISS:          0  HIT %:        100  MISS %:          0   MPKI: 0
PSCL5 LOAD TRANSLATION ACCESS:        153  HIT:        153  MISS:          0  HIT %:        100  MISS %:          0   MPKI: 0
PSCL5 PREFETCH  REQUESTED:          0  ISSUED:          0  USEFUL:          0  USELESS:          0
PSCL5 USEFUL LOAD PREFETCHES:          0 PREFETCH ISSUED TO LOWER LEVEL:          0  ACCURACY: -nan
PSCL5 TIMELY PREFETCHES:          0 LATE PREFETCHES: 0 DROPPED PREFETCHES: 0
PSCL5 PREFETCHES SAME FILL-ORIGIN LEVEL: 0 DIFFERENT FILL-ORIGIN LEVEL: 0

PSCL4 TOTAL     ACCESS:        153  HIT:        153  MISS:          0  HIT %:        100  MISS %:          0   MPKI: 0
PSCL4 LOAD TRANSLATION ACCESS:        153  HIT:        153  MISS:          0  HIT %:        100  MISS %:          0   MPKI: 0
PSCL4 PREFETCH  REQUESTED:          0  ISSUED:          0  USEFUL:          0  USELESS:          0
PSCL4 USEFUL LOAD PREFETCHES:          0 PREFETCH ISSUED TO LOWER LEVEL:          0  ACCURACY: -nan
PSCL4 TIMELY PREFETCHES:          0 LATE PREFETCHES: 0 DROPPED PREFETCHES: 0
PSCL4 PREFETCHES SAME FILL-ORIGIN LEVEL: 0 DIFFERENT FILL-ORIGIN LEVEL: 0

PSCL3 TOTAL     ACCESS:        153  HIT:        153  MISS:          0  HIT %:        100  MISS %:          0   MPKI: 0
PSCL3 LOAD TRANSLATION ACCESS:        153  HIT:        153  MISS:          0  HIT %:        100  MISS %:          0   MPKI: 0
PSCL3 PREFETCH  REQUESTED:          0  ISSUED:          0  USEFUL:          0  USELESS:          0
PSCL3 USEFUL LOAD PREFETCHES:          0 PREFETCH ISSUED TO LOWER LEVEL:          0  ACCURACY: -nan
PSCL3 TIMELY PREFETCHES:          0 LATE PREFETCHES: 0 DROPPED PREFETCHES: 0
PSCL3 PREFETCHES SAME FILL-ORIGIN LEVEL: 0 DIFFERENT FILL-ORIGIN LEVEL: 0

PSCL2 TOTAL     ACCESS:        153  HIT:        152  MISS:          1  HIT %:    99.3464  MISS %:   0.653595   MPKI: 2e-05
PSCL2 LOAD TRANSLATION ACCESS:        153  HIT:        152  MISS:          1  HIT %:    99.3464  MISS %:   0.653595   MPKI: 2e-05
PSCL2 PREFETCH  REQUESTED:          0  ISSUED:          0  USEFUL:          0  USELESS:          0
PSCL2 USEFUL LOAD PREFETCHES:          0 PREFETCH ISSUED TO LOWER LEVEL:          0  ACCURACY: -nan
PSCL2 TIMELY PREFETCHES:          0 LATE PREFETCHES: 0 DROPPED PREFETCHES: 0
PSCL2 PREFETCHES SAME FILL-ORIGIN LEVEL: 0 DIFFERENT FILL-ORIGIN LEVEL: 0

LLC TOTAL     ACCESS:      16650  HIT:       8432  MISS:       8218  HIT %:    50.6426  MISS %:    49.3574   MPKI: 0.16436
LLC LOAD      ACCESS:       5208  HIT:       2462  MISS:       2746  HIT %:    47.2734  MISS %:    52.7266   MPKI: 0.05492
LLC RFO       ACCESS:        406  HIT:          3  MISS:        403  HIT %:   0.738916  MISS %:    99.2611   MPKI: 0.00806
LLC PREFETCH  ACCESS:      10530  HIT:       5488  MISS:       5042  HIT %:    52.1178  MISS %:    47.8822   MPKI: 0.10084
AGUS PREFETCH L1 MISS: 0
LLC WRITEBACK ACCESS:        474  HIT:        474  MISS:          0  HIT %:        100  MISS %:          0   MPKI: 0
LLC LOAD TRANSLATION ACCESS:         32  HIT:          5  MISS:         27  HIT %:     15.625  MISS %:     84.375   MPKI: 0.00054
LLC PREFETCH  REQUESTED:          0  ISSUED:          0  USEFUL:       1861  USELESS:          0
LLC USEFUL LOAD PREFETCHES:       1861 PREFETCH ISSUED TO LOWER LEVEL:       5042  ACCURACY: 36.91
LLC TIMELY PREFETCHES:       1861 LATE PREFETCHES: 0 DROPPED PREFETCHES: 0
LLC PREFETCHES SAME FILL-ORIGIN LEVEL: 0 DIFFERENT FILL-ORIGIN LEVEL: 0
LLC AVERAGE MISS LATENCY: 104.089 cycles
LLC RQ	ACCESS:       5646	FORWARD:          0	MERGED:          0	TO_CACHE:       5646
LLC WQ	ACCESS:        474	FORWARD:          0	MERGED:          0	TO_CACHE:        474
LLC PQ	ACCESS:      10530	FORWARD:          0	MERGED:          0	TO_CACHE:      10530

LLC Dense regions hint to LLC: 0

RAW hits: 111412
Loads Generated: 12141302
Loads sent to L1D: 12029890
Stores Generated: 3150752
Stores sent to L1D: 3150756
Major fault: 0 Minor fault: 474
Allocated PAGES: 474

stream: 
stream:times selected: 20011
stream:pref_filled: 42447
stream:pref_useful: 17205
stream:pref_late: 28
stream:misses: 3532
stream:misses_by_poll: 0

CS: 
CS:times selected: 2206
CS:pref_filled: 1263
CS:pref_useful: 1010
CS:pref_late: 157
CS:misses: 1694
CS:misses_by_poll: 0

CPLX: 
CPLX:times selected: 17630
CPLX:pref_filled: 1877
CPLX:pref_useful: 1237
CPLX:pref_late: 174
CPLX:misses: 10838
CPLX:misses_by_poll: 3

ISB: 
ISB:times selected:5838
ISB:pref_filled: 5881
ISB:pref_useful: 3485
ISB:pref_late: 90
ISB:misses: 8422
ISB:misses_by_poll: 33

NL_L1: 
NL:times selected: 116
NL:pref_filled: 64
NL:pref_useful: 31
NL:pref_late: 0
NL:misses: 146
NL:misses_by_poll: 0

total selections: 45801
total_filled: 24681
total_useful: 8455
total_late: 479
total_polluted: 36
total_misses_after_warmup: 14903
conflicts: 845

test: 8160
ISB Prefetcher final stats
Training Unit Size: 61
Addr table size: 13547 13548


Triggers: 20013
No Prediction: 14175 70.829
Stream end: 3246
No translation: 3279450 16386.6
Predictions: 10072 50.3273


Stream divergence: 4632 23.145
Stream divergence -- new stream: 0

DRAM Statistics
 CHANNEL 0
 RQ ROW_BUFFER_HIT:       6194  ROW_BUFFER_MISS:       2024
 DBUS_CONGESTED:          0
 WQ ROW_BUFFER_HIT:          0  ROW_BUFFER_MISS:          0  FULL:          0

 AVG_CONGESTED_CYCLE: -
 All warmup complete: 2
Channel 0 Bank busy for read cycles: 0
Channel 0 Bank busy for write cycles: 0
Channel 0
Rank 0
0banks busy for read cycles: 57154586
0banks busy for write cycles: 0
1banks busy for read cycles: 163510
1banks busy for write cycles: 0
2banks busy for read cycles: 42805
2banks busy for write cycles: 0
3banks busy for read cycles: 19604
3banks busy for write cycles: 0
4banks busy for read cycles: 13400
4banks busy for write cycles: 0
5banks busy for read cycles: 9013
5banks busy for write cycles: 0
6banks busy for read cycles: 11017
6banks busy for write cycles: 0
7banks busy for read cycles: 14305
7banks busy for write cycles: 0
8banks busy for read cycles: 5060
8banks busy for write cycles: 0

CPU 0 Branch Prediction Accuracy: 88.47% MPKI: 4.83304 Average ROB Occupancy at Mispredict: 36.0326
Branch types
NOT_BRANCH: 47903889 95.8078%
BRANCH_DIRECT_JUMP: 36659 0.073318%
BRANCH_INDIRECT: 3046 0.006092%
BRANCH_CONDITIONAL: 1779789 3.55958%
BRANCH_DIRECT_CALL: 71241 0.142482%
BRANCH_INDIRECT_CALL: 66940 0.13388%
BRANCH_RETURN: 138182 0.276364%
BRANCH_OTHER: 0 0%

DRAM PAGES: 1048576
Allocated PAGES: 474
