
*** ChampSim Multicore Out-of-Order Simulator ***

Warmup Instructions: 50000000
Simulation Instructions: 100000000
Number of CPUs: 1
LLC sets: 2048
LLC ways: 16
Off-chip DRAM Size: 4096 MB Channels: 1 Width: 64-bit Data Rate: 6400 MT/s
CPU 0 runs ./traces/GAP/bc-0.trace.gz
.gz
CPU 0 Bimodal branch predictor
BTB has LRU replacement policy
ITLB has LRU replacement policy
DTLB has LRU replacement policy
STLB has LRU replacement policy
L1I has LRU replacement policy
Ideal ISB Prefetching
L1D has LRU replacement policy
L2C has LRU replacement policy
LLC has LRU replacement policy
Heartbeat CPU 0 instructions: 10000001 cycles: 3623024 heartbeat IPC: 2.76013 cumulative IPC: 2.76013 (Simulation time: 0 hr 1 min 36 sec) 
Heartbeat CPU 0 instructions: 20000000 cycles: 6698459 heartbeat IPC: 3.25157 cumulative IPC: 2.98576 (Simulation time: 0 hr 4 min 20 sec) 
Heartbeat CPU 0 instructions: 30000003 cycles: 9760792 heartbeat IPC: 3.26549 cumulative IPC: 3.07352 (Simulation time: 0 hr 7 min 21 sec) 
Heartbeat CPU 0 instructions: 40000000 cycles: 12820200 heartbeat IPC: 3.26861 cumulative IPC: 3.12008 (Simulation time: 0 hr 10 min 20 sec) 
Heartbeat CPU 0 instructions: 50000000 cycles: 15875890 heartbeat IPC: 3.27258 cumulative IPC: 3.14943 (Simulation time: 0 hr 13 min 24 sec) 

Warmup complete CPU 0 instructions: 50000004 cycles: 15875891 (Simulation time: 0 hr 13 min 24 sec) 

Heartbeat CPU 0 instructions: 60000000 cycles: 92456961 heartbeat IPC: 0.130581 cumulative IPC: 0.130581 (Simulation time: 0 hr 17 min 5 sec) 
Heartbeat CPU 0 instructions: 70000001 cycles: 169210101 heartbeat IPC: 0.130288 cumulative IPC: 0.130434 (Simulation time: 0 hr 20 min 48 sec) 
Heartbeat CPU 0 instructions: 80000000 cycles: 245773847 heartbeat IPC: 0.13061 cumulative IPC: 0.130493 (Simulation time: 0 hr 24 min 40 sec) 
Heartbeat CPU 0 instructions: 90000002 cycles: 322656014 heartbeat IPC: 0.130069 cumulative IPC: 0.130387 (Simulation time: 0 hr 28 min 32 sec) 
Heartbeat CPU 0 instructions: 100000000 cycles: 398820898 heartbeat IPC: 0.131294 cumulative IPC: 0.130567 (Simulation time: 0 hr 32 min 28 sec) 
Heartbeat CPU 0 instructions: 110000001 cycles: 475101690 heartbeat IPC: 0.131095 cumulative IPC: 0.130655 (Simulation time: 0 hr 36 min 36 sec) 
Heartbeat CPU 0 instructions: 120000000 cycles: 551092517 heartbeat IPC: 0.131595 cumulative IPC: 0.130788 (Simulation time: 0 hr 40 min 51 sec) 
Heartbeat CPU 0 instructions: 130000002 cycles: 627257147 heartbeat IPC: 0.131295 cumulative IPC: 0.130851 (Simulation time: 0 hr 45 min 2 sec) 
Heartbeat CPU 0 instructions: 140000000 cycles: 703531076 heartbeat IPC: 0.131106 cumulative IPC: 0.13088 (Simulation time: 0 hr 49 min 14 sec) 
Heartbeat CPU 0 instructions: 150000000 cycles: 779725865 heartbeat IPC: 0.131243 cumulative IPC: 0.130916 (Simulation time: 0 hr 53 min 30 sec) 
Finished CPU 0 instructions: 100000000 cycles: 763849975 cumulative IPC: 0.130916 (Simulation time: 0 hr 53 min 30 sec) 

ChampSim completed all CPUs

Region of Interest Statistics

CPU 0 cumulative IPC: 0.130916 instructions: 100000000 cycles: 763849975
ITLB TOTAL     ACCESS:   18736806  HIT:   18736806  MISS:          0  HIT %:        100  MISS %:          0   MPKI: 0
ITLB LOAD TRANSLATION ACCESS:   18736806  HIT:   18736806  MISS:          0  HIT %:        100  MISS %:          0   MPKI: 0
ITLB PREFETCH  REQUESTED:          0  ISSUED:          0  USEFUL:          0  USELESS:          0
ITLB USEFUL LOAD PREFETCHES:          0 PREFETCH ISSUED TO LOWER LEVEL:          0  ACCURACY: -nan
ITLB TIMELY PREFETCHES:          0 LATE PREFETCHES: 0 DROPPED PREFETCHES: 0
ITLB PREFETCHES SAME FILL-ORIGIN LEVEL: 0 DIFFERENT FILL-ORIGIN LEVEL: 0
ITLB AVERAGE MISS LATENCY: -nan cycles
ITLB RQ	ACCESS:   19107170	FORWARD:          0	MERGED:     370364	TO_CACHE:   18736806

DTLB TOTAL     ACCESS:   26194617  HIT:   22521314  MISS:    3673303  HIT %:    85.9769  MISS %:    14.0231   MPKI: 36.733
DTLB LOAD TRANSLATION ACCESS:   26194617  HIT:   22521314  MISS:    3673303  HIT %:    85.9769  MISS %:    14.0231   MPKI: 36.733
DTLB PREFETCH  REQUESTED:          0  ISSUED:          0  USEFUL:          0  USELESS:          0
DTLB USEFUL LOAD PREFETCHES:          0 PREFETCH ISSUED TO LOWER LEVEL:          0  ACCURACY: -nan
DTLB TIMELY PREFETCHES:          0 LATE PREFETCHES: 0 DROPPED PREFETCHES: 0
DTLB PREFETCHES SAME FILL-ORIGIN LEVEL: 0 DIFFERENT FILL-ORIGIN LEVEL: 0
DTLB AVERAGE MISS LATENCY: 15.8766 cycles
DTLB RQ	ACCESS:   27243711	FORWARD:          0	MERGED:     954654	TO_CACHE:   26289057

STLB TOTAL     ACCESS:   10001058  HIT:    7678904  MISS:    2322154  HIT %:    76.7809  MISS %:    23.2191   MPKI: 23.2215
STLB LOAD TRANSLATION ACCESS:    3673302  HIT:    2776127  MISS:     897175  HIT %:    75.5758  MISS %:    24.4242   MPKI: 8.97175
STLB TRANSLATION FROM L1D PREFETCHER ACCESS:    6327756  HIT:    4902777  MISS:    1424979  HIT %:    77.4805  MISS %:    22.5195   MPKI: 14.2498
STLB PREFETCH  REQUESTED:          0  ISSUED:          0  USEFUL:    1236314  USELESS:     188631
STLB USEFUL LOAD PREFETCHES:    1236314 PREFETCH ISSUED TO LOWER LEVEL:          0  ACCURACY: inf
STLB TIMELY PREFETCHES:    1236314 LATE PREFETCHES: 9817 DROPPED PREFETCHES: 0
STLB PREFETCHES SAME FILL-ORIGIN LEVEL: 0 DIFFERENT FILL-ORIGIN LEVEL: 0
STLB AVERAGE MISS LATENCY: 31.8551 cycles
STLB RQ	ACCESS:   12332079	FORWARD:          0	MERGED:    2288019	TO_CACHE:   10044060

STLB Hit, L1D data hit: 0
STLB Hit, L2C data hit: 0
STLB Hit, LLC data hit: 0
STLB Hit, LLC data miss: 0
STLB STLB hints to L2: 0
L1D TOTAL     ACCESS:   35329168  HIT:   18801707  MISS:   16527461  HIT %:    53.2187  MISS %:    46.7813   MPKI: 165.275
L1D LOAD      ACCESS:   22112053  HIT:   14023677  MISS:    8088376  HIT %:     63.421  MISS %:     36.579   MPKI: 80.8838
L1D RFO       ACCESS:    4699096  HIT:    4677821  MISS:      21275  HIT %:    99.5473  MISS %:   0.452747   MPKI: 0.21275
L1D PREFETCH  ACCESS:    8518019  HIT:     100209  MISS:    8417810  HIT %:    1.17644  MISS %:    98.8236   MPKI: 84.1781
AGUS PREFETCH L1 MISS: 0
L1D PREFETCH  REQUESTED:   17699237  ISSUED:   17404164  USEFUL:     587748  USELESS:    7830045
L1D USEFUL LOAD PREFETCHES:     587748 PREFETCH ISSUED TO LOWER LEVEL:    8460210  ACCURACY: 6.9472
L1D TIMELY PREFETCHES:     587748 LATE PREFETCHES: 42409 DROPPED PREFETCHES: 0
L1D PREFETCHES SAME FILL-ORIGIN LEVEL: 8460210 DIFFERENT FILL-ORIGIN LEVEL: 0
L1D AVERAGE MISS LATENCY: 131.511 cycles
L1D RQ	ACCESS:   26285240	FORWARD:          0	MERGED:    3637865	TO_CACHE:   22514143
L1D WQ	ACCESS:    4783662	FORWARD:     133233	MERGED:      54094	TO_CACHE:    4729568
L1D PQ	ACCESS:    8745387	FORWARD:          0	MERGED:      86609	TO_CACHE:    8658777

L1D UNIQUE REGIONS ACCESSED: 0
L1D REGIONS CONFLICTS: 0
L1D Cross Page Prefetch Requests: 8617728
L1D Same Page Prefetch Requests: 3981093
L1D ROI Sum of L1D PQ occupancy: 211366943
L1D PREFETCHES PUSHED FROM L2C: 0
L1I TOTAL     ACCESS:   19107170  HIT:   19107170  MISS:          0  HIT %:        100  MISS %:          0   MPKI: 0
L1I LOAD      ACCESS:   19107170  HIT:   19107170  MISS:          0  HIT %:        100  MISS %:          0   MPKI: 0
L1I PREFETCH  REQUESTED:          0  ISSUED:          0  USEFUL:          0  USELESS:          0
L1I USEFUL LOAD PREFETCHES:          0 PREFETCH ISSUED TO LOWER LEVEL:          0  ACCURACY: -nan
L1I TIMELY PREFETCHES:          0 LATE PREFETCHES: 0 DROPPED PREFETCHES: 0
L1I PREFETCHES SAME FILL-ORIGIN LEVEL: 0 DIFFERENT FILL-ORIGIN LEVEL: 0
L1I AVERAGE MISS LATENCY: -nan cycles
L1I RQ	ACCESS:   25596563	FORWARD:          0	MERGED:    6489393	TO_CACHE:   19107170

BTB TOTAL     ACCESS:   19194698  HIT:   19194684  MISS:         14  HIT %:    99.9999  MISS %: 7.29368e-05   MPKI: 0.00014
BTB BRANCH_DIRECT_JUMP	ACCESS:     166019  HIT:     166015  MISS:          4
BTB BRANCH_INDIRECT	ACCESS:          0  HIT:          0  MISS:          0
BTB BRANCH_CONDITIONAL	ACCESS:   19028659  HIT:   19028651  MISS:          8
BTB BRANCH_DIRECT_CALL	ACCESS:         10  HIT:          9  MISS:          1
BTB BRANCH_INDIRECT_CALL	ACCESS:          0  HIT:          0  MISS:          0
BTB BRANCH_RETURN	ACCESS:         10  HIT:          9  MISS:          1
BTB BRANCH_OTHER ACCESS:          0  HIT:          0  MISS:          0

L2C TOTAL     ACCESS:   21221004  HIT:    6307330  MISS:   14913674  HIT %:    29.7221  MISS %:    70.2779   MPKI: 149.137
L2C LOAD      ACCESS:    8045967  HIT:     694466  MISS:    7351501  HIT %:    8.63123  MISS %:    91.3688   MPKI: 73.515
L2C DATA LOAD MPKI: 73.515
L2C INSTRUCTION LOAD MPKI: 0
L2C RFO       ACCESS:      21275  HIT:       1106  MISS:      20169  HIT %:    5.19859  MISS %:    94.8014   MPKI: 0.20169
L2C PREFETCH  ACCESS:    8460219  HIT:    1102248  MISS:    7357971  HIT %:    13.0286  MISS %:    86.9714   MPKI: 73.5797
AGUS PREFETCH L1 MISS: 0
L2C DATA PREFETCH MPKI: 73.5797
L2C INSTRUCTION PREFETCH MPKI: 0
L2C WRITEBACK ACCESS:    2371114  HIT:    2370604  MISS:        510  HIT %:    99.9785  MISS %:  0.0215089   MPKI: 0.0051
L2C LOAD TRANSLATION ACCESS:     887611  HIT:     838015  MISS:      49596  HIT %:    94.4124  MISS %:    5.58758   MPKI: 0.49596
L2C TRANSLATION FROM L1D PREFETCHER ACCESS:    1434818  HIT:    1300891  MISS:     133927  HIT %:    90.6659  MISS %:    9.33408   MPKI: 1.33927
L2C PREFETCH  REQUESTED:          0  ISSUED:          0  USEFUL:     329283  USELESS:    7162528
L2C USEFUL LOAD PREFETCHES:     329283 PREFETCH ISSUED TO LOWER LEVEL:    7357972  ACCURACY: 4.47519
L2C TIMELY PREFETCHES:     329283 LATE PREFETCHES: 0 DROPPED PREFETCHES: 0
L2C PREFETCHES SAME FILL-ORIGIN LEVEL: 0 DIFFERENT FILL-ORIGIN LEVEL: 0
L2C AVERAGE MISS LATENCY: 129.468 cycles
L2C RQ	ACCESS:   10389672	FORWARD:          0	MERGED:          0	TO_CACHE:   10389672
L2C WQ	ACCESS:    2371115	FORWARD:          0	MERGED:          0	TO_CACHE:    2371115
L2C PQ	ACCESS:    8460210	FORWARD:          0	MERGED:          0	TO_CACHE:    8460210

L2C Instructions Evicting Data 0
L2C Translations Evicting Data 183390
L2C Data Evicting Data 14546259
L2C Instructions Evicting Instructions 0
L2C Translations Evicting Instructions 0
L2C Data Evicting Instructions 0
L2C Instructions Evicting Translations 0
L2C Translations Evicting Translations 133
L2C Data Evicting Translations 183382
L2C Dense regions hint from L2: 0
PSCL5 TOTAL     ACCESS:    2322153  HIT:    2322153  MISS:          0  HIT %:        100  MISS %:          0   MPKI: 0
PSCL5 LOAD TRANSLATION ACCESS:     887358  HIT:     887358  MISS:          0  HIT %:        100  MISS %:          0   MPKI: 0
PSCL5 TRANSLATION FROM L1D PREFETCHER ACCESS:    1434795  HIT:    1434795  MISS:          0  HIT %:        100  MISS %:          0   MPKI: 0
PSCL5 PREFETCH  REQUESTED:          0  ISSUED:          0  USEFUL:          0  USELESS:          0
PSCL5 USEFUL LOAD PREFETCHES:          0 PREFETCH ISSUED TO LOWER LEVEL:          0  ACCURACY: -nan
PSCL5 TIMELY PREFETCHES:          0 LATE PREFETCHES: 0 DROPPED PREFETCHES: 0
PSCL5 PREFETCHES SAME FILL-ORIGIN LEVEL: 0 DIFFERENT FILL-ORIGIN LEVEL: 0

PSCL4 TOTAL     ACCESS:    2322153  HIT:    2322153  MISS:          0  HIT %:        100  MISS %:          0   MPKI: 0
PSCL4 LOAD TRANSLATION ACCESS:     887358  HIT:     887358  MISS:          0  HIT %:        100  MISS %:          0   MPKI: 0
PSCL4 TRANSLATION FROM L1D PREFETCHER ACCESS:    1434795  HIT:    1434795  MISS:          0  HIT %:        100  MISS %:          0   MPKI: 0
PSCL4 PREFETCH  REQUESTED:          0  ISSUED:          0  USEFUL:          0  USELESS:          0
PSCL4 USEFUL LOAD PREFETCHES:          0 PREFETCH ISSUED TO LOWER LEVEL:          0  ACCURACY: -nan
PSCL4 TIMELY PREFETCHES:          0 LATE PREFETCHES: 0 DROPPED PREFETCHES: 0
PSCL4 PREFETCHES SAME FILL-ORIGIN LEVEL: 0 DIFFERENT FILL-ORIGIN LEVEL: 0

PSCL3 TOTAL     ACCESS:    2322153  HIT:    2322153  MISS:          0  HIT %:        100  MISS %:          0   MPKI: 0
PSCL3 LOAD TRANSLATION ACCESS:     887358  HIT:     887358  MISS:          0  HIT %:        100  MISS %:          0   MPKI: 0
PSCL3 TRANSLATION FROM L1D PREFETCHER ACCESS:    1434795  HIT:    1434795  MISS:          0  HIT %:        100  MISS %:          0   MPKI: 0
PSCL3 PREFETCH  REQUESTED:          0  ISSUED:          0  USEFUL:          0  USELESS:          0
PSCL3 USEFUL LOAD PREFETCHES:          0 PREFETCH ISSUED TO LOWER LEVEL:          0  ACCURACY: -nan
PSCL3 TIMELY PREFETCHES:          0 LATE PREFETCHES: 0 DROPPED PREFETCHES: 0
PSCL3 PREFETCHES SAME FILL-ORIGIN LEVEL: 0 DIFFERENT FILL-ORIGIN LEVEL: 0

PSCL2 TOTAL     ACCESS:    2322153  HIT:    2321866  MISS:        287  HIT %:    99.9876  MISS %:  0.0123592   MPKI: 0.00287
PSCL2 LOAD TRANSLATION ACCESS:     887381  HIT:     887094  MISS:        287  HIT %:    99.9677  MISS %:  0.0323424   MPKI: 0.00287
PSCL2 TRANSLATION FROM L1D PREFETCHER ACCESS:    1434772  HIT:    1434772  MISS:          0  HIT %:        100  MISS %:          0   MPKI: 0
PSCL2 PREFETCH  REQUESTED:          0  ISSUED:          0  USEFUL:          0  USELESS:          0
PSCL2 USEFUL LOAD PREFETCHES:          0 PREFETCH ISSUED TO LOWER LEVEL:          0  ACCURACY: -nan
PSCL2 TIMELY PREFETCHES:          0 LATE PREFETCHES: 0 DROPPED PREFETCHES: 0
PSCL2 PREFETCHES SAME FILL-ORIGIN LEVEL: 0 DIFFERENT FILL-ORIGIN LEVEL: 0

LLC TOTAL     ACCESS:   17257675  HIT:    8703721  MISS:    8553954  HIT %:    50.4339  MISS %:    49.5661   MPKI: 85.5395
LLC LOAD      ACCESS:    7351502  HIT:    2473863  MISS:    4877639  HIT %:    33.6511  MISS %:    66.3489   MPKI: 48.7764
LLC RFO       ACCESS:      20169  HIT:        215  MISS:      19954  HIT %:    1.06599  MISS %:     98.934   MPKI: 0.19954
LLC PREFETCH  ACCESS:    7357964  HIT:    3729122  MISS:    3628842  HIT %:    50.6814  MISS %:    49.3186   MPKI: 36.2884
AGUS PREFETCH L1 MISS: 0
LLC WRITEBACK ACCESS:    2344517  HIT:    2344257  MISS:        260  HIT %:    99.9889  MISS %:  0.0110897   MPKI: 0.0026
LLC LOAD TRANSLATION ACCESS:      49596  HIT:      39294  MISS:      10302  HIT %:    79.2282  MISS %:    20.7718   MPKI: 0.10302
LLC TRANSLATION FROM L1D PREFETCHER ACCESS:     133927  HIT:     116970  MISS:      16957  HIT %:    87.3386  MISS %:    12.6614   MPKI: 0.16957
LLC PREFETCH  REQUESTED:          0  ISSUED:          0  USEFUL:     512401  USELESS:    3133664
LLC USEFUL LOAD PREFETCHES:     512401 PREFETCH ISSUED TO LOWER LEVEL:    3628843  ACCURACY: 14.1202
LLC TIMELY PREFETCHES:     512401 LATE PREFETCHES: 0 DROPPED PREFETCHES: 0
LLC PREFETCHES SAME FILL-ORIGIN LEVEL: 0 DIFFERENT FILL-ORIGIN LEVEL: 0
LLC AVERAGE MISS LATENCY: 173.373 cycles
LLC RQ	ACCESS:    7555194	FORWARD:          0	MERGED:          0	TO_CACHE:    7555194
LLC WQ	ACCESS:    2344517	FORWARD:          7	MERGED:          0	TO_CACHE:    2344517
LLC PQ	ACCESS:    7357972	FORWARD:          0	MERGED:          0	TO_CACHE:    7357965

LLC Dense regions hint to LLC: 0

RAW hits: 260006
Loads Generated: 26545246
Loads sent to L1D: 26285240
Stores Generated: 4783660
Stores sent to L1D: 4783662
Major fault: 0 Minor fault: 21935
Allocated PAGES: 21935
Prefetcher final stats
Training Unit Size: 113
Addr table size: 725012 725012


Triggers: 11747794
No Prediction: 1721164 14.651
Stream end: 9893443
No translation: 1398733770 11906.4
Predictions: 12598821 107.244


Stream divergence: 2730202 23.2401
Stream divergence -- new stream: 0

DRAM Statistics
 CHANNEL 0
 RQ ROW_BUFFER_HIT:    1963592  ROW_BUFFER_MISS:    6589896
 DBUS_CONGESTED:       5833
 WQ ROW_BUFFER_HIT:    1233610  ROW_BUFFER_MISS:     862251  FULL:          0

 AVG_CONGESTED_CYCLE: 4
 All warmup complete: 2
Channel 0 Bank busy for read cycles: 0
Channel 0 Bank busy for write cycles: 0
Channel 0
Rank 0
0banks busy for read cycles: 42515326
0banks busy for write cycles: 290471
1banks busy for read cycles: 212110904
1banks busy for write cycles: 57511933
2banks busy for read cycles: 136441721
2banks busy for write cycles: 54077622
3banks busy for read cycles: 81413571
3banks busy for write cycles: 42433531
4banks busy for read cycles: 44476722
4banks busy for write cycles: 28888585
5banks busy for read cycles: 21216461
5banks busy for write cycles: 17140959
6banks busy for read cycles: 8495043
6banks busy for write cycles: 8792464
7banks busy for read cycles: 2566802
7banks busy for write cycles: 3642195
8banks busy for read cycles: 587446
8banks busy for write cycles: 1248220

CPU 0 Branch Prediction Accuracy: 85.5613% MPKI: 27.7293 Average ROB Occupancy at Mispredict: 23.1978
Branch types
NOT_BRANCH: 80794858 80.7949%
BRANCH_DIRECT_JUMP: 166019 0.166019%
BRANCH_INDIRECT: 0 0%
BRANCH_CONDITIONAL: 19038841 19.0388%
BRANCH_DIRECT_CALL: 10 1e-05%
BRANCH_INDIRECT_CALL: 0 0%
BRANCH_RETURN: 10 1e-05%
BRANCH_OTHER: 0 0%

DRAM PAGES: 1048576
Allocated PAGES: 21935
