
*** ChampSim Multicore Out-of-Order Simulator ***

Warmup Instructions: 50000000
Simulation Instructions: 100000000
Number of CPUs: 1
LLC sets: 2048
LLC ways: 16
Off-chip DRAM Size: 4096 MB Channels: 1 Width: 64-bit Data Rate: 6400 MT/s
CPU 0 runs ./traces/GAP/bc-12.trace.gz
.gz
CPU 0 Bimodal branch predictor
BTB has LRU replacement policy
ITLB has LRU replacement policy
DTLB has LRU replacement policy
STLB has LRU replacement policy
L1I has LRU replacement policy
L1D has LRU replacement policy
L2C has LRU replacement policy
LLC has LRU replacement policy
Heartbeat CPU 0 instructions: 10000002 cycles: 3639603 heartbeat IPC: 2.74755 cumulative IPC: 2.74755 (Simulation time: 0 hr 0 min 40 sec) 
Heartbeat CPU 0 instructions: 20000000 cycles: 6782448 heartbeat IPC: 3.18183 cumulative IPC: 2.94879 (Simulation time: 0 hr 1 min 10 sec) 
Heartbeat CPU 0 instructions: 30000003 cycles: 9915495 heartbeat IPC: 3.19178 cumulative IPC: 3.02557 (Simulation time: 0 hr 1 min 39 sec) 
Heartbeat CPU 0 instructions: 40000000 cycles: 13044345 heartbeat IPC: 3.19606 cumulative IPC: 3.06646 (Simulation time: 0 hr 2 min 9 sec) 
Heartbeat CPU 0 instructions: 50000001 cycles: 16171147 heartbeat IPC: 3.19816 cumulative IPC: 3.09193 (Simulation time: 0 hr 2 min 38 sec) 

Warmup complete CPU 0 instructions: 50000001 cycles: 16171147 (Simulation time: 0 hr 2 min 38 sec) 

Heartbeat CPU 0 instructions: 60000000 cycles: 93096530 heartbeat IPC: 0.129996 cumulative IPC: 0.129996 (Simulation time: 0 hr 3 min 35 sec) 
Heartbeat CPU 0 instructions: 70000000 cycles: 170133649 heartbeat IPC: 0.129808 cumulative IPC: 0.129902 (Simulation time: 0 hr 4 min 32 sec) 
Heartbeat CPU 0 instructions: 80000000 cycles: 247229864 heartbeat IPC: 0.129708 cumulative IPC: 0.129837 (Simulation time: 0 hr 5 min 29 sec) 
Heartbeat CPU 0 instructions: 90000000 cycles: 324449720 heartbeat IPC: 0.1295 cumulative IPC: 0.129753 (Simulation time: 0 hr 6 min 26 sec) 
Heartbeat CPU 0 instructions: 100000000 cycles: 401613110 heartbeat IPC: 0.129595 cumulative IPC: 0.129721 (Simulation time: 0 hr 7 min 22 sec) 
Heartbeat CPU 0 instructions: 110000002 cycles: 478686536 heartbeat IPC: 0.129746 cumulative IPC: 0.129725 (Simulation time: 0 hr 8 min 19 sec) 
Heartbeat CPU 0 instructions: 120000000 cycles: 555403814 heartbeat IPC: 0.130349 cumulative IPC: 0.129814 (Simulation time: 0 hr 9 min 16 sec) 
Heartbeat CPU 0 instructions: 130000001 cycles: 632440915 heartbeat IPC: 0.129808 cumulative IPC: 0.129813 (Simulation time: 0 hr 10 min 13 sec) 
Heartbeat CPU 0 instructions: 140000000 cycles: 708947935 heartbeat IPC: 0.130707 cumulative IPC: 0.129912 (Simulation time: 0 hr 11 min 10 sec) 
Heartbeat CPU 0 instructions: 150000000 cycles: 785914012 heartbeat IPC: 0.129927 cumulative IPC: 0.129914 (Simulation time: 0 hr 12 min 7 sec) 
Finished CPU 0 instructions: 100000003 cycles: 769742866 cumulative IPC: 0.129914 (Simulation time: 0 hr 12 min 7 sec) 

ChampSim completed all CPUs

Region of Interest Statistics

CPU 0 cumulative IPC: 0.129914 instructions: 100000003 cycles: 769742866
ITLB TOTAL     ACCESS:   16306253  HIT:   16306253  MISS:          0  HIT %:        100  MISS %:          0   MPKI: 0
ITLB LOAD TRANSLATION ACCESS:   16306253  HIT:   16306253  MISS:          0  HIT %:        100  MISS %:          0   MPKI: 0
ITLB PREFETCH  REQUESTED:          0  ISSUED:          0  USEFUL:          0  USELESS:          0
ITLB USEFUL LOAD PREFETCHES:          0 PREFETCH ISSUED TO LOWER LEVEL:          0  ACCURACY: -nan
ITLB TIMELY PREFETCHES:          0 LATE PREFETCHES: 0 DROPPED PREFETCHES: 0
ITLB PREFETCHES SAME FILL-ORIGIN LEVEL: 0 DIFFERENT FILL-ORIGIN LEVEL: 0
ITLB AVERAGE MISS LATENCY: -nan cycles
ITLB RQ	ACCESS:   16786188	FORWARD:          0	MERGED:     479935	TO_CACHE:   16306253

DTLB TOTAL     ACCESS:   28312454  HIT:   24590668  MISS:    3721786  HIT %:    86.8546  MISS %:    13.1454   MPKI: 37.2179
DTLB LOAD TRANSLATION ACCESS:   28312454  HIT:   24590668  MISS:    3721786  HIT %:    86.8546  MISS %:    13.1454   MPKI: 37.2179
DTLB PREFETCH  REQUESTED:          0  ISSUED:          0  USEFUL:          0  USELESS:          0
DTLB USEFUL LOAD PREFETCHES:          0 PREFETCH ISSUED TO LOWER LEVEL:          0  ACCURACY: -nan
DTLB TIMELY PREFETCHES:          0 LATE PREFETCHES: 0 DROPPED PREFETCHES: 0
DTLB PREFETCHES SAME FILL-ORIGIN LEVEL: 0 DIFFERENT FILL-ORIGIN LEVEL: 0
DTLB AVERAGE MISS LATENCY: 20.3587 cycles
DTLB RQ	ACCESS:   31617297	FORWARD:          0	MERGED:    3042185	TO_CACHE:   28575112

STLB TOTAL     ACCESS:    3721786  HIT:    2065760  MISS:    1656026  HIT %:    55.5045  MISS %:    44.4955   MPKI: 16.5603
STLB LOAD TRANSLATION ACCESS:    3721786  HIT:    2065760  MISS:    1656026  HIT %:    55.5045  MISS %:    44.4955   MPKI: 16.5603
STLB PREFETCH  REQUESTED:          0  ISSUED:          0  USEFUL:          0  USELESS:          0
STLB USEFUL LOAD PREFETCHES:          0 PREFETCH ISSUED TO LOWER LEVEL:          0  ACCURACY: -nan
STLB TIMELY PREFETCHES:          0 LATE PREFETCHES: 0 DROPPED PREFETCHES: 0
STLB PREFETCHES SAME FILL-ORIGIN LEVEL: 0 DIFFERENT FILL-ORIGIN LEVEL: 0
STLB AVERAGE MISS LATENCY: 25.342 cycles
STLB RQ	ACCESS:    3721786	FORWARD:          0	MERGED:          0	TO_CACHE:    3721786

STLB Hit, L1D data hit: 0
STLB Hit, L2C data hit: 0
STLB Hit, LLC data hit: 0
STLB Hit, LLC data miss: 0
STLB STLB hints to L2: 0
L1D TOTAL     ACCESS:   31295922  HIT:   22738183  MISS:    8557739  HIT %:    72.6554  MISS %:    27.3446   MPKI: 85.5774
L1D LOAD      ACCESS:   25732921  HIT:   17194572  MISS:    8538349  HIT %:    66.8194  MISS %:    33.1806   MPKI: 85.3835
L1D RFO       ACCESS:    5563001  HIT:    5543611  MISS:      19390  HIT %:    99.6514  MISS %:   0.348553   MPKI: 0.1939
L1D PREFETCH  REQUESTED:          0  ISSUED:          0  USEFUL:          0  USELESS:          0
L1D USEFUL LOAD PREFETCHES:          0 PREFETCH ISSUED TO LOWER LEVEL:          0  ACCURACY: -nan
L1D TIMELY PREFETCHES:          0 LATE PREFETCHES: 0 DROPPED PREFETCHES: 0
L1D PREFETCHES SAME FILL-ORIGIN LEVEL: 0 DIFFERENT FILL-ORIGIN LEVEL: 0
L1D AVERAGE MISS LATENCY: 134.95 cycles
L1D RQ	ACCESS:   27469879	FORWARD:          0	MERGED:    1415192	TO_CACHE:   26027127
L1D WQ	ACCESS:    5743777	FORWARD:      27560	MERGED:     153607	TO_CACHE:    5590170

L1D UNIQUE REGIONS ACCESSED: 0
L1D REGIONS CONFLICTS: 0
L1D Cross Page Prefetch Requests: 0
L1D Same Page Prefetch Requests: 0
L1D ROI Sum of L1D PQ occupancy: 0
L1D PREFETCHES PUSHED FROM L2C: 0
L1I TOTAL     ACCESS:   16786188  HIT:   16786188  MISS:          0  HIT %:        100  MISS %:          0   MPKI: 0
L1I LOAD      ACCESS:   16786188  HIT:   16786188  MISS:          0  HIT %:        100  MISS %:          0   MPKI: 0
L1I PREFETCH  REQUESTED:          0  ISSUED:          0  USEFUL:          0  USELESS:          0
L1I USEFUL LOAD PREFETCHES:          0 PREFETCH ISSUED TO LOWER LEVEL:          0  ACCURACY: -nan
L1I TIMELY PREFETCHES:          0 LATE PREFETCHES: 0 DROPPED PREFETCHES: 0
L1I PREFETCHES SAME FILL-ORIGIN LEVEL: 0 DIFFERENT FILL-ORIGIN LEVEL: 0
L1I AVERAGE MISS LATENCY: -nan cycles
L1I RQ	ACCESS:   23553866	FORWARD:          0	MERGED:    6767678	TO_CACHE:   16786188

BTB TOTAL     ACCESS:   17480833  HIT:   17480819  MISS:         14  HIT %:    99.9999  MISS %: 8.00877e-05   MPKI: 0.00014
BTB BRANCH_DIRECT_JUMP	ACCESS:     167909  HIT:     167905  MISS:          4
BTB BRANCH_INDIRECT	ACCESS:          0  HIT:          0  MISS:          0
BTB BRANCH_CONDITIONAL	ACCESS:   17312906  HIT:   17312898  MISS:          8
BTB BRANCH_DIRECT_CALL	ACCESS:          9  HIT:          8  MISS:          1
BTB BRANCH_INDIRECT_CALL	ACCESS:          0  HIT:          0  MISS:          0
BTB BRANCH_RETURN	ACCESS:          9  HIT:          8  MISS:          1
BTB BRANCH_OTHER ACCESS:          0  HIT:          0  MISS:          0

L2C TOTAL     ACCESS:   13044097  HIT:    5468143  MISS:    7575954  HIT %:    41.9204  MISS %:    58.0796   MPKI: 75.7595
L2C LOAD      ACCESS:    8538349  HIT:    1046810  MISS:    7491539  HIT %:    12.2601  MISS %:    87.7399   MPKI: 74.9154
L2C DATA LOAD MPKI: 74.9154
L2C INSTRUCTION LOAD MPKI: 0
L2C RFO       ACCESS:      19390  HIT:        129  MISS:      19261  HIT %:   0.665291  MISS %:    99.3347   MPKI: 0.19261
L2C WRITEBACK ACCESS:    2830305  HIT:    2830283  MISS:         22  HIT %:    99.9992  MISS %: 0.000777301   MPKI: 0.00022
L2C LOAD TRANSLATION ACCESS:    1656053  HIT:    1590921  MISS:      65132  HIT %:     96.067  MISS %:    3.93297   MPKI: 0.65132
L2C PREFETCH  REQUESTED:          0  ISSUED:          0  USEFUL:          0  USELESS:          0
L2C USEFUL LOAD PREFETCHES:          0 PREFETCH ISSUED TO LOWER LEVEL:          0  ACCURACY: -nan
L2C TIMELY PREFETCHES:          0 LATE PREFETCHES: 0 DROPPED PREFETCHES: 0
L2C PREFETCHES SAME FILL-ORIGIN LEVEL: 0 DIFFERENT FILL-ORIGIN LEVEL: 0
L2C AVERAGE MISS LATENCY: 136.118 cycles
L2C RQ	ACCESS:   10213791	FORWARD:          0	MERGED:          0	TO_CACHE:   10213791
L2C WQ	ACCESS:    2830305	FORWARD:          0	MERGED:          0	TO_CACHE:    2830305

L2C Instructions Evicting Data 0
L2C Translations Evicting Data 65074
L2C Data Evicting Data 7445727
L2C Instructions Evicting Instructions 0
L2C Translations Evicting Instructions 0
L2C Data Evicting Instructions 0
L2C Instructions Evicting Translations 0
L2C Translations Evicting Translations 58
L2C Data Evicting Translations 65073
L2C Dense regions hint from L2: 0
PSCL5 TOTAL     ACCESS:    1656026  HIT:    1656026  MISS:          0  HIT %:        100  MISS %:          0   MPKI: 0
PSCL5 LOAD TRANSLATION ACCESS:    1656026  HIT:    1656026  MISS:          0  HIT %:        100  MISS %:          0   MPKI: 0
PSCL5 PREFETCH  REQUESTED:          0  ISSUED:          0  USEFUL:          0  USELESS:          0
PSCL5 USEFUL LOAD PREFETCHES:          0 PREFETCH ISSUED TO LOWER LEVEL:          0  ACCURACY: -nan
PSCL5 TIMELY PREFETCHES:          0 LATE PREFETCHES: 0 DROPPED PREFETCHES: 0
PSCL5 PREFETCHES SAME FILL-ORIGIN LEVEL: 0 DIFFERENT FILL-ORIGIN LEVEL: 0

PSCL4 TOTAL     ACCESS:    1656026  HIT:    1656026  MISS:          0  HIT %:        100  MISS %:          0   MPKI: 0
PSCL4 LOAD TRANSLATION ACCESS:    1656026  HIT:    1656026  MISS:          0  HIT %:        100  MISS %:          0   MPKI: 0
PSCL4 PREFETCH  REQUESTED:          0  ISSUED:          0  USEFUL:          0  USELESS:          0
PSCL4 USEFUL LOAD PREFETCHES:          0 PREFETCH ISSUED TO LOWER LEVEL:          0  ACCURACY: -nan
PSCL4 TIMELY PREFETCHES:          0 LATE PREFETCHES: 0 DROPPED PREFETCHES: 0
PSCL4 PREFETCHES SAME FILL-ORIGIN LEVEL: 0 DIFFERENT FILL-ORIGIN LEVEL: 0

PSCL3 TOTAL     ACCESS:    1656026  HIT:    1656026  MISS:          0  HIT %:        100  MISS %:          0   MPKI: 0
PSCL3 LOAD TRANSLATION ACCESS:    1656026  HIT:    1656026  MISS:          0  HIT %:        100  MISS %:          0   MPKI: 0
PSCL3 PREFETCH  REQUESTED:          0  ISSUED:          0  USEFUL:          0  USELESS:          0
PSCL3 USEFUL LOAD PREFETCHES:          0 PREFETCH ISSUED TO LOWER LEVEL:          0  ACCURACY: -nan
PSCL3 TIMELY PREFETCHES:          0 LATE PREFETCHES: 0 DROPPED PREFETCHES: 0
PSCL3 PREFETCHES SAME FILL-ORIGIN LEVEL: 0 DIFFERENT FILL-ORIGIN LEVEL: 0

PSCL2 TOTAL     ACCESS:    1656026  HIT:    1655972  MISS:         54  HIT %:    99.9967  MISS %: 0.00326082   MPKI: 0.00054
PSCL2 LOAD TRANSLATION ACCESS:    1656026  HIT:    1655972  MISS:         54  HIT %:    99.9967  MISS %: 0.00326082   MPKI: 0.00054
PSCL2 PREFETCH  REQUESTED:          0  ISSUED:          0  USEFUL:          0  USELESS:          0
PSCL2 USEFUL LOAD PREFETCHES:          0 PREFETCH ISSUED TO LOWER LEVEL:          0  ACCURACY: -nan
PSCL2 TIMELY PREFETCHES:          0 LATE PREFETCHES: 0 DROPPED PREFETCHES: 0
PSCL2 PREFETCHES SAME FILL-ORIGIN LEVEL: 0 DIFFERENT FILL-ORIGIN LEVEL: 0

LLC TOTAL     ACCESS:   10290834  HIT:    5405921  MISS:    4884913  HIT %:    52.5314  MISS %:    47.4686   MPKI: 48.8491
LLC LOAD      ACCESS:    7491539  HIT:    2646126  MISS:    4845413  HIT %:    35.3215  MISS %:    64.6785   MPKI: 48.4541
LLC RFO       ACCESS:      19261  HIT:        390  MISS:      18871  HIT %:    2.02482  MISS %:    97.9752   MPKI: 0.18871
LLC WRITEBACK ACCESS:    2714902  HIT:    2714762  MISS:        140  HIT %:    99.9948  MISS %: 0.00515672   MPKI: 0.0014
LLC LOAD TRANSLATION ACCESS:      65132  HIT:      44643  MISS:      20489  HIT %:    68.5423  MISS %:    31.4577   MPKI: 0.20489
LLC PREFETCH  REQUESTED:          0  ISSUED:          0  USEFUL:          0  USELESS:          0
LLC USEFUL LOAD PREFETCHES:          0 PREFETCH ISSUED TO LOWER LEVEL:          0  ACCURACY: -nan
LLC TIMELY PREFETCHES:          0 LATE PREFETCHES: 0 DROPPED PREFETCHES: 0
LLC PREFETCHES SAME FILL-ORIGIN LEVEL: 0 DIFFERENT FILL-ORIGIN LEVEL: 0
LLC AVERAGE MISS LATENCY: 164.549 cycles
LLC RQ	ACCESS:    7575931	FORWARD:          0	MERGED:          0	TO_CACHE:    7575931
LLC WQ	ACCESS:    2714902	FORWARD:          0	MERGED:          0	TO_CACHE:    2714902

LLC Dense regions hint to LLC: 0

RAW hits: 823535
Loads Generated: 28293414
Loads sent to L1D: 27469879
Stores Generated: 5743775
Stores sent to L1D: 5743777
Major fault: 0 Minor fault: 20661
Allocated PAGES: 20661

DRAM Statistics
 CHANNEL 0
 RQ ROW_BUFFER_HIT:     754145  ROW_BUFFER_MISS:    4130581
 DBUS_CONGESTED:       1833
 WQ ROW_BUFFER_HIT:    1185086  ROW_BUFFER_MISS:     934974  FULL:          0

 AVG_CONGESTED_CYCLE: 4
 All warmup complete: 2
Channel 0 Bank busy for read cycles: 0
Channel 0 Bank busy for write cycles: 0
Channel 0
Rank 0
0banks busy for read cycles: 100249474
0banks busy for write cycles: 597144
1banks busy for read cycles: 262399852
1banks busy for write cycles: 116404989
2banks busy for read cycles: 113811171
2banks busy for write cycles: 74554679
3banks busy for read cycles: 32110573
3banks busy for write cycles: 34114692
4banks busy for read cycles: 10744433
4banks busy for write cycles: 13054356
5banks busy for read cycles: 3635234
5banks busy for write cycles: 4536082
6banks busy for read cycles: 1054103
6banks busy for write cycles: 1397181
7banks busy for read cycles: 252676
7banks busy for write cycles: 348114
8banks busy for read cycles: 233587
8banks busy for write cycles: 244527

CPU 0 Branch Prediction Accuracy: 83.1166% MPKI: 29.55 Average ROB Occupancy at Mispredict: 23.1517
Branch types
NOT_BRANCH: 82497361 82.4974%
BRANCH_DIRECT_JUMP: 167909 0.167909%
BRANCH_INDIRECT: 0 0%
BRANCH_CONDITIONAL: 17334501 17.3345%
BRANCH_DIRECT_CALL: 9 9e-06%
BRANCH_INDIRECT_CALL: 0 0%
BRANCH_RETURN: 9 9e-06%
BRANCH_OTHER: 0 0%

DRAM PAGES: 1048576
Allocated PAGES: 20661
