
*** ChampSim Multicore Out-of-Order Simulator ***

Warmup Instructions: 50000000
Simulation Instructions: 100000000
Number of CPUs: 1
LLC sets: 2048
LLC ways: 16
Off-chip DRAM Size: 4096 MB Channels: 1 Width: 64-bit Data Rate: 6400 MT/s
CPU 0 runs ./traces/GAP/bc-12.trace.gz
.gz
CPU 0 Bimodal branch predictor
BTB has LRU replacement policy
ITLB has LRU replacement policy
DTLB has LRU replacement policy
STLB has LRU replacement policy
L1I has LRU replacement policy
L1D has LRU replacement policy
Ideal ISB Prefetching
L2C has LRU replacement policy
LLC has LRU replacement policy
Heartbeat CPU 0 instructions: 10000002 cycles: 3641501 heartbeat IPC: 2.74612 cumulative IPC: 2.74612 (Simulation time: 0 hr 1 min 40 sec) 
Heartbeat CPU 0 instructions: 20000000 cycles: 6788053 heartbeat IPC: 3.17808 cumulative IPC: 2.94635 (Simulation time: 0 hr 4 min 11 sec) 
Heartbeat CPU 0 instructions: 30000003 cycles: 9925063 heartbeat IPC: 3.18775 cumulative IPC: 3.02265 (Simulation time: 0 hr 6 min 52 sec) 
Heartbeat CPU 0 instructions: 40000000 cycles: 13057146 heartbeat IPC: 3.19276 cumulative IPC: 3.06346 (Simulation time: 0 hr 9 min 37 sec) 
Heartbeat CPU 0 instructions: 50000003 cycles: 16185721 heartbeat IPC: 3.19634 cumulative IPC: 3.08914 (Simulation time: 0 hr 12 min 19 sec) 

Warmup complete CPU 0 instructions: 50000003 cycles: 16185721 (Simulation time: 0 hr 12 min 19 sec) 

Heartbeat CPU 0 instructions: 60000000 cycles: 94247224 heartbeat IPC: 0.128104 cumulative IPC: 0.128104 (Simulation time: 0 hr 15 min 37 sec) 
Heartbeat CPU 0 instructions: 70000000 cycles: 173108819 heartbeat IPC: 0.126804 cumulative IPC: 0.127451 (Simulation time: 0 hr 19 min 3 sec) 
Heartbeat CPU 0 instructions: 80000000 cycles: 252130757 heartbeat IPC: 0.126547 cumulative IPC: 0.127148 (Simulation time: 0 hr 22 min 30 sec) 
Heartbeat CPU 0 instructions: 90000000 cycles: 331535955 heartbeat IPC: 0.125936 cumulative IPC: 0.126843 (Simulation time: 0 hr 26 min 2 sec) 
Heartbeat CPU 0 instructions: 100000000 cycles: 410883827 heartbeat IPC: 0.126027 cumulative IPC: 0.126679 (Simulation time: 0 hr 29 min 35 sec) 
Heartbeat CPU 0 instructions: 110000000 cycles: 490200270 heartbeat IPC: 0.126077 cumulative IPC: 0.126578 (Simulation time: 0 hr 33 min 11 sec) 
Heartbeat CPU 0 instructions: 120000000 cycles: 568532110 heartbeat IPC: 0.127662 cumulative IPC: 0.126732 (Simulation time: 0 hr 36 min 48 sec) 
Heartbeat CPU 0 instructions: 130000001 cycles: 647775274 heartbeat IPC: 0.126194 cumulative IPC: 0.126665 (Simulation time: 0 hr 40 min 30 sec) 
Heartbeat CPU 0 instructions: 140000000 cycles: 725935753 heartbeat IPC: 0.127942 cumulative IPC: 0.126805 (Simulation time: 0 hr 44 min 5 sec) 
Heartbeat CPU 0 instructions: 150000000 cycles: 805126144 heartbeat IPC: 0.126278 cumulative IPC: 0.126752 (Simulation time: 0 hr 47 min 46 sec) 
Finished CPU 0 instructions: 100000001 cycles: 788940424 cumulative IPC: 0.126752 (Simulation time: 0 hr 47 min 46 sec) 

ChampSim completed all CPUs

Region of Interest Statistics

CPU 0 cumulative IPC: 0.126752 instructions: 100000001 cycles: 788940424
ITLB TOTAL     ACCESS:   16305713  HIT:   16305713  MISS:          0  HIT %:        100  MISS %:          0   MPKI: 0
ITLB LOAD TRANSLATION ACCESS:   16305713  HIT:   16305713  MISS:          0  HIT %:        100  MISS %:          0   MPKI: 0
ITLB PREFETCH  REQUESTED:          0  ISSUED:          0  USEFUL:          0  USELESS:          0
ITLB USEFUL LOAD PREFETCHES:          0 PREFETCH ISSUED TO LOWER LEVEL:          0  ACCURACY: -nan
ITLB TIMELY PREFETCHES:          0 LATE PREFETCHES: 0 DROPPED PREFETCHES: 0
ITLB PREFETCHES SAME FILL-ORIGIN LEVEL: 0 DIFFERENT FILL-ORIGIN LEVEL: 0
ITLB AVERAGE MISS LATENCY: -nan cycles
ITLB RQ	ACCESS:   16785660	FORWARD:          0	MERGED:     479948	TO_CACHE:   16305712

DTLB TOTAL     ACCESS:   28285340  HIT:   24563548  MISS:    3721792  HIT %:     86.842  MISS %:     13.158   MPKI: 37.2179
DTLB LOAD TRANSLATION ACCESS:   28285340  HIT:   24563548  MISS:    3721792  HIT %:     86.842  MISS %:     13.158   MPKI: 37.2179
DTLB PREFETCH  REQUESTED:          0  ISSUED:          0  USEFUL:          0  USELESS:          0
DTLB USEFUL LOAD PREFETCHES:          0 PREFETCH ISSUED TO LOWER LEVEL:          0  ACCURACY: -nan
DTLB TIMELY PREFETCHES:          0 LATE PREFETCHES: 0 DROPPED PREFETCHES: 0
DTLB PREFETCHES SAME FILL-ORIGIN LEVEL: 0 DIFFERENT FILL-ORIGIN LEVEL: 0
DTLB AVERAGE MISS LATENCY: 21.804 cycles
DTLB RQ	ACCESS:   31595532	FORWARD:          0	MERGED:    3043260	TO_CACHE:   28552272

STLB TOTAL     ACCESS:    3721791  HIT:    2065768  MISS:    1656023  HIT %:    55.5047  MISS %:    44.4953   MPKI: 16.5602
STLB LOAD TRANSLATION ACCESS:    3721791  HIT:    2065768  MISS:    1656023  HIT %:    55.5047  MISS %:    44.4953   MPKI: 16.5602
STLB PREFETCH  REQUESTED:          0  ISSUED:          0  USEFUL:          0  USELESS:          0
STLB USEFUL LOAD PREFETCHES:          0 PREFETCH ISSUED TO LOWER LEVEL:          0  ACCURACY: -nan
STLB TIMELY PREFETCHES:          0 LATE PREFETCHES: 0 DROPPED PREFETCHES: 0
STLB PREFETCHES SAME FILL-ORIGIN LEVEL: 0 DIFFERENT FILL-ORIGIN LEVEL: 0
STLB AVERAGE MISS LATENCY: 28.5907 cycles
STLB RQ	ACCESS:    3721791	FORWARD:          0	MERGED:          0	TO_CACHE:    3721791

STLB Hit, L1D data hit: 0
STLB Hit, L2C data hit: 0
STLB Hit, LLC data hit: 0
STLB Hit, LLC data miss: 0
STLB STLB hints to L2: 0
L1D TOTAL     ACCESS:   31277605  HIT:   22719877  MISS:    8557728  HIT %:    72.6394  MISS %:    27.3606   MPKI: 85.5773
L1D LOAD      ACCESS:   25721439  HIT:   17183101  MISS:    8538338  HIT %:    66.8046  MISS %:    33.1954   MPKI: 85.3834
L1D RFO       ACCESS:    5556166  HIT:    5536776  MISS:      19390  HIT %:     99.651  MISS %:   0.348982   MPKI: 0.1939
L1D PREFETCH  REQUESTED:          0  ISSUED:          0  USEFUL:          0  USELESS:          0
L1D USEFUL LOAD PREFETCHES:          0 PREFETCH ISSUED TO LOWER LEVEL:          0  ACCURACY: -nan
L1D TIMELY PREFETCHES:          0 LATE PREFETCHES: 0 DROPPED PREFETCHES: 0
L1D PREFETCHES SAME FILL-ORIGIN LEVEL: 0 DIFFERENT FILL-ORIGIN LEVEL: 0
L1D AVERAGE MISS LATENCY: 139.112 cycles
L1D RQ	ACCESS:   27457662	FORWARD:          0	MERGED:    1419144	TO_CACHE:   26012001
L1D WQ	ACCESS:    5743777	FORWARD:      26517	MERGED:     160246	TO_CACHE:    5583531

L1D UNIQUE REGIONS ACCESSED: 0
L1D REGIONS CONFLICTS: 0
L1D Cross Page Prefetch Requests: 0
L1D Same Page Prefetch Requests: 0
L1D ROI Sum of L1D PQ occupancy: 0
L1D PREFETCHES PUSHED FROM L2C: 0
L1I TOTAL     ACCESS:   16785661  HIT:   16785661  MISS:          0  HIT %:        100  MISS %:          0   MPKI: 0
L1I LOAD      ACCESS:   16785661  HIT:   16785661  MISS:          0  HIT %:        100  MISS %:          0   MPKI: 0
L1I PREFETCH  REQUESTED:          0  ISSUED:          0  USEFUL:          0  USELESS:          0
L1I USEFUL LOAD PREFETCHES:          0 PREFETCH ISSUED TO LOWER LEVEL:          0  ACCURACY: -nan
L1I TIMELY PREFETCHES:          0 LATE PREFETCHES: 0 DROPPED PREFETCHES: 0
L1I PREFETCHES SAME FILL-ORIGIN LEVEL: 0 DIFFERENT FILL-ORIGIN LEVEL: 0
L1I AVERAGE MISS LATENCY: -nan cycles
L1I RQ	ACCESS:   23553360	FORWARD:          0	MERGED:    6767700	TO_CACHE:   16785660

BTB TOTAL     ACCESS:   17480827  HIT:   17480813  MISS:         14  HIT %:    99.9999  MISS %: 8.00877e-05   MPKI: 0.00014
BTB BRANCH_DIRECT_JUMP	ACCESS:     167909  HIT:     167905  MISS:          4
BTB BRANCH_INDIRECT	ACCESS:          0  HIT:          0  MISS:          0
BTB BRANCH_CONDITIONAL	ACCESS:   17312900  HIT:   17312892  MISS:          8
BTB BRANCH_DIRECT_CALL	ACCESS:          9  HIT:          8  MISS:          1
BTB BRANCH_INDIRECT_CALL	ACCESS:          0  HIT:          0  MISS:          0
BTB BRANCH_RETURN	ACCESS:          9  HIT:          8  MISS:          1
BTB BRANCH_OTHER ACCESS:          0  HIT:          0  MISS:          0

L2C TOTAL     ACCESS:   21205677  HIT:    6070219  MISS:   15135458  HIT %:    28.6254  MISS %:    71.3746   MPKI: 151.355
L2C LOAD      ACCESS:    8538337  HIT:    1176455  MISS:    7361882  HIT %:    13.7785  MISS %:    86.2215   MPKI: 73.6188
L2C DATA LOAD MPKI: 73.6188
L2C INSTRUCTION LOAD MPKI: 0
L2C RFO       ACCESS:      19390  HIT:         86  MISS:      19304  HIT %:   0.443528  MISS %:    99.5565   MPKI: 0.19304
L2C PREFETCH  ACCESS:    8161596  HIT:     609404  MISS:    7552192  HIT %:    7.46673  MISS %:    92.5333   MPKI: 75.5219
AGUS PREFETCH L1 MISS: 0
L2C DATA PREFETCH MPKI: 75.5219
L2C INSTRUCTION PREFETCH MPKI: 0
L2C WRITEBACK ACCESS:    2830304  HIT:    2829772  MISS:        532  HIT %:    99.9812  MISS %:  0.0187966   MPKI: 0.00532
L2C LOAD TRANSLATION ACCESS:    1656050  HIT:    1454502  MISS:     201548  HIT %:    87.8296  MISS %:    12.1704   MPKI: 2.01548
L2C PREFETCH  REQUESTED:    8296773  ISSUED:    8294854  USEFUL:     703393  USELESS:    6848840
L2C USEFUL LOAD PREFETCHES:     703393 PREFETCH ISSUED TO LOWER LEVEL:    7586087  ACCURACY: 9.27215
L2C TIMELY PREFETCHES:     703393 LATE PREFETCHES: 33895 DROPPED PREFETCHES: 0
L2C PREFETCHES SAME FILL-ORIGIN LEVEL: 7586087 DIFFERENT FILL-ORIGIN LEVEL: 0
L2C AVERAGE MISS LATENCY: 135.255 cycles
L2C RQ	ACCESS:   10213778	FORWARD:          0	MERGED:          0	TO_CACHE:   10213778
L2C WQ	ACCESS:    2830304	FORWARD:          1	MERGED:          0	TO_CACHE:    2830304
L2C PQ	ACCESS:    8294854	FORWARD:          0	MERGED:      42818	TO_CACHE:    8252035

L2C Instructions Evicting Data 0
L2C Translations Evicting Data 201402
L2C Data Evicting Data 14731998
L2C Instructions Evicting Instructions 0
L2C Translations Evicting Instructions 0
L2C Data Evicting Instructions 0
L2C Instructions Evicting Translations 0
L2C Translations Evicting Translations 146
L2C Data Evicting Translations 201380
L2C Dense regions hint from L2: 0
PSCL5 TOTAL     ACCESS:    1656023  HIT:    1656023  MISS:          0  HIT %:        100  MISS %:          0   MPKI: 0
PSCL5 LOAD TRANSLATION ACCESS:    1656023  HIT:    1656023  MISS:          0  HIT %:        100  MISS %:          0   MPKI: 0
PSCL5 PREFETCH  REQUESTED:          0  ISSUED:          0  USEFUL:          0  USELESS:          0
PSCL5 USEFUL LOAD PREFETCHES:          0 PREFETCH ISSUED TO LOWER LEVEL:          0  ACCURACY: -nan
PSCL5 TIMELY PREFETCHES:          0 LATE PREFETCHES: 0 DROPPED PREFETCHES: 0
PSCL5 PREFETCHES SAME FILL-ORIGIN LEVEL: 0 DIFFERENT FILL-ORIGIN LEVEL: 0

PSCL4 TOTAL     ACCESS:    1656023  HIT:    1656023  MISS:          0  HIT %:        100  MISS %:          0   MPKI: 0
PSCL4 LOAD TRANSLATION ACCESS:    1656023  HIT:    1656023  MISS:          0  HIT %:        100  MISS %:          0   MPKI: 0
PSCL4 PREFETCH  REQUESTED:          0  ISSUED:          0  USEFUL:          0  USELESS:          0
PSCL4 USEFUL LOAD PREFETCHES:          0 PREFETCH ISSUED TO LOWER LEVEL:          0  ACCURACY: -nan
PSCL4 TIMELY PREFETCHES:          0 LATE PREFETCHES: 0 DROPPED PREFETCHES: 0
PSCL4 PREFETCHES SAME FILL-ORIGIN LEVEL: 0 DIFFERENT FILL-ORIGIN LEVEL: 0

PSCL3 TOTAL     ACCESS:    1656023  HIT:    1656023  MISS:          0  HIT %:        100  MISS %:          0   MPKI: 0
PSCL3 LOAD TRANSLATION ACCESS:    1656023  HIT:    1656023  MISS:          0  HIT %:        100  MISS %:          0   MPKI: 0
PSCL3 PREFETCH  REQUESTED:          0  ISSUED:          0  USEFUL:          0  USELESS:          0
PSCL3 USEFUL LOAD PREFETCHES:          0 PREFETCH ISSUED TO LOWER LEVEL:          0  ACCURACY: -nan
PSCL3 TIMELY PREFETCHES:          0 LATE PREFETCHES: 0 DROPPED PREFETCHES: 0
PSCL3 PREFETCHES SAME FILL-ORIGIN LEVEL: 0 DIFFERENT FILL-ORIGIN LEVEL: 0

PSCL2 TOTAL     ACCESS:    1656023  HIT:    1655969  MISS:         54  HIT %:    99.9967  MISS %: 0.00326082   MPKI: 0.00054
PSCL2 LOAD TRANSLATION ACCESS:    1656023  HIT:    1655969  MISS:         54  HIT %:    99.9967  MISS %: 0.00326082   MPKI: 0.00054
PSCL2 PREFETCH  REQUESTED:          0  ISSUED:          0  USEFUL:          0  USELESS:          0
PSCL2 USEFUL LOAD PREFETCHES:          0 PREFETCH ISSUED TO LOWER LEVEL:          0  ACCURACY: -nan
PSCL2 TIMELY PREFETCHES:          0 LATE PREFETCHES: 0 DROPPED PREFETCHES: 0
PSCL2 PREFETCHES SAME FILL-ORIGIN LEVEL: 0 DIFFERENT FILL-ORIGIN LEVEL: 0

LLC TOTAL     ACCESS:   17923488  HIT:    9027641  MISS:    8895847  HIT %:    50.3677  MISS %:    49.6323   MPKI: 88.9585
LLC LOAD      ACCESS:    7327986  HIT:    2365706  MISS:    4962280  HIT %:    32.2832  MISS %:    67.7168   MPKI: 49.6228
LLC RFO       ACCESS:      19304  HIT:        214  MISS:      19090  HIT %:    1.10858  MISS %:    98.8914   MPKI: 0.1909
LLC PREFETCH  ACCESS:    7586082  HIT:    3691995  MISS:    3894087  HIT %:     48.668  MISS %:     51.332   MPKI: 38.9409
AGUS PREFETCH L1 MISS: 0
LLC WRITEBACK ACCESS:    2788568  HIT:    2788538  MISS:         30  HIT %:    99.9989  MISS %: 0.00107582   MPKI: 0.0003
LLC LOAD TRANSLATION ACCESS:     201548  HIT:     181188  MISS:      20360  HIT %:    89.8982  MISS %:    10.1018   MPKI: 0.2036
LLC PREFETCH  REQUESTED:          0  ISSUED:          0  USEFUL:     526475  USELESS:    3368245
LLC USEFUL LOAD PREFETCHES:     526475 PREFETCH ISSUED TO LOWER LEVEL:    3894087  ACCURACY: 13.5199
LLC TIMELY PREFETCHES:     526475 LATE PREFETCHES: 0 DROPPED PREFETCHES: 0
LLC PREFETCHES SAME FILL-ORIGIN LEVEL: 0 DIFFERENT FILL-ORIGIN LEVEL: 0
LLC AVERAGE MISS LATENCY: 179.047 cycles
LLC RQ	ACCESS:    7548840	FORWARD:          0	MERGED:          0	TO_CACHE:    7548839
LLC WQ	ACCESS:    2788568	FORWARD:          6	MERGED:          0	TO_CACHE:    2788568
LLC PQ	ACCESS:    7586087	FORWARD:          0	MERGED:          0	TO_CACHE:    7586082

LLC Dense regions hint to LLC: 0

RAW hits: 835744
Loads Generated: 28293406
Loads sent to L1D: 27457662
Stores Generated: 5743773
Stores sent to L1D: 5743777
Major fault: 0 Minor fault: 20661
Allocated PAGES: 20661
Prefetcher final stats
Training Unit Size: 104
Addr table size: 678442 678442


Triggers: 10721830
No Prediction: 1600527 14.9277
Stream end: 8954713
No translation: 506800106 4726.81
Predictions: 12362799 115.305


Stream divergence: 2560818 23.8842
Stream divergence -- new stream: 0

DRAM Statistics
 CHANNEL 0
 RQ ROW_BUFFER_HIT:    1981331  ROW_BUFFER_MISS:    6914196
 DBUS_CONGESTED:       5099
 WQ ROW_BUFFER_HIT:    1265799  ROW_BUFFER_MISS:    1140295  FULL:          0

 AVG_CONGESTED_CYCLE: 4
 All warmup complete: 2
Channel 0 Bank busy for read cycles: 0
Channel 0 Bank busy for write cycles: 0
Channel 0
Rank 0
0banks busy for read cycles: 49758560
0banks busy for write cycles: 331215
1banks busy for read cycles: 216491795
1banks busy for write cycles: 60997331
2banks busy for read cycles: 130504582
2banks busy for write cycles: 54740707
3banks busy for read cycles: 78598801
3banks busy for write cycles: 42228865
4banks busy for read cycles: 45512191
4banks busy for write cycles: 29578149
5banks busy for read cycles: 24564288
5banks busy for write cycles: 18769552
6banks busy for read cycles: 12006679
6banks busy for write cycles: 10765057
7banks busy for read cycles: 4917333
7banks busy for write cycles: 5491181
8banks busy for read cycles: 1466027
8banks busy for write cycles: 2218112

CPU 0 Branch Prediction Accuracy: 83.1166% MPKI: 29.55 Average ROB Occupancy at Mispredict: 23.3867
Branch types
NOT_BRANCH: 82497329 82.4973%
BRANCH_DIRECT_JUMP: 167909 0.167909%
BRANCH_INDIRECT: 0 0%
BRANCH_CONDITIONAL: 17334494 17.3345%
BRANCH_DIRECT_CALL: 9 9e-06%
BRANCH_INDIRECT_CALL: 0 0%
BRANCH_RETURN: 9 9e-06%
BRANCH_OTHER: 0 0%

DRAM PAGES: 1048576
Allocated PAGES: 20661
