
*** ChampSim Multicore Out-of-Order Simulator ***

Warmup Instructions: 50000000
Simulation Instructions: 100000000
Number of CPUs: 1
LLC sets: 2048
LLC ways: 16
Off-chip DRAM Size: 4096 MB Channels: 1 Width: 64-bit Data Rate: 6400 MT/s
CPU 0 runs ./traces/GAP/bc-12.trace.gz
.gz
CPU 0 Bimodal branch predictor
BTB has LRU replacement policy
ITLB has LRU replacement policy
DTLB has LRU replacement policy
STLB has LRU replacement policy
L1I has LRU replacement policy
L1D has LRU replacement policy
L2C has LRU replacement policy
LLC has LRU replacement policy
Heartbeat CPU 0 instructions: 10000002 cycles: 3643168 heartbeat IPC: 2.74486 cumulative IPC: 2.74486 (Simulation time: 0 hr 2 min 49 sec) 
Heartbeat CPU 0 instructions: 20000000 cycles: 6791739 heartbeat IPC: 3.17604 cumulative IPC: 2.94475 (Simulation time: 0 hr 6 min 0 sec) 
Heartbeat CPU 0 instructions: 30000003 cycles: 9931102 heartbeat IPC: 3.18536 cumulative IPC: 3.02081 (Simulation time: 0 hr 9 min 12 sec) 
Heartbeat CPU 0 instructions: 40000000 cycles: 13064560 heartbeat IPC: 3.19136 cumulative IPC: 3.06172 (Simulation time: 0 hr 12 min 26 sec) 
Heartbeat CPU 0 instructions: 50000001 cycles: 16193841 heartbeat IPC: 3.19562 cumulative IPC: 3.08759 (Simulation time: 0 hr 15 min 40 sec) 

Warmup complete CPU 0 instructions: 50000001 cycles: 16193841 (Simulation time: 0 hr 15 min 40 sec) 

Heartbeat CPU 0 instructions: 60000000 cycles: 91193066 heartbeat IPC: 0.133335 cumulative IPC: 0.133335 (Simulation time: 0 hr 16 min 49 sec) 
Heartbeat CPU 0 instructions: 70000000 cycles: 166925773 heartbeat IPC: 0.132043 cumulative IPC: 0.132686 (Simulation time: 0 hr 17 min 58 sec) 
Heartbeat CPU 0 instructions: 80000000 cycles: 242758963 heartbeat IPC: 0.131868 cumulative IPC: 0.132412 (Simulation time: 0 hr 19 min 7 sec) 
Heartbeat CPU 0 instructions: 90000000 cycles: 319063195 heartbeat IPC: 0.131054 cumulative IPC: 0.13207 (Simulation time: 0 hr 20 min 17 sec) 
Heartbeat CPU 0 instructions: 100000000 cycles: 395479117 heartbeat IPC: 0.130863 cumulative IPC: 0.131827 (Simulation time: 0 hr 21 min 26 sec) 
Heartbeat CPU 0 instructions: 110000000 cycles: 471753081 heartbeat IPC: 0.131106 cumulative IPC: 0.131706 (Simulation time: 0 hr 22 min 35 sec) 
Heartbeat CPU 0 instructions: 120000000 cycles: 547078973 heartbeat IPC: 0.132756 cumulative IPC: 0.131855 (Simulation time: 0 hr 23 min 45 sec) 
Heartbeat CPU 0 instructions: 130000000 cycles: 623285153 heartbeat IPC: 0.131223 cumulative IPC: 0.131776 (Simulation time: 0 hr 24 min 54 sec) 
Heartbeat CPU 0 instructions: 140000000 cycles: 698520192 heartbeat IPC: 0.132917 cumulative IPC: 0.131902 (Simulation time: 0 hr 26 min 4 sec) 
Heartbeat CPU 0 instructions: 150000000 cycles: 774796527 heartbeat IPC: 0.131102 cumulative IPC: 0.131821 (Simulation time: 0 hr 27 min 13 sec) 
Finished CPU 0 instructions: 100000003 cycles: 758602687 cumulative IPC: 0.131821 (Simulation time: 0 hr 27 min 13 sec) 

ChampSim completed all CPUs

Region of Interest Statistics

CPU 0 cumulative IPC: 0.131821 instructions: 100000003 cycles: 758602687
ITLB TOTAL     ACCESS:   16306134  HIT:   16306134  MISS:          0  HIT %:        100  MISS %:          0   MPKI: 0
ITLB LOAD TRANSLATION ACCESS:   16306134  HIT:   16306134  MISS:          0  HIT %:        100  MISS %:          0   MPKI: 0
ITLB PREFETCH  REQUESTED:          0  ISSUED:          0  USEFUL:          0  USELESS:          0
ITLB USEFUL LOAD PREFETCHES:          0 PREFETCH ISSUED TO LOWER LEVEL:          0  ACCURACY: -nan
ITLB TIMELY PREFETCHES:          0 LATE PREFETCHES: 0 DROPPED PREFETCHES: 0
ITLB PREFETCHES SAME FILL-ORIGIN LEVEL: 0 DIFFERENT FILL-ORIGIN LEVEL: 0
ITLB AVERAGE MISS LATENCY: -nan cycles
ITLB RQ	ACCESS:   16786054	FORWARD:          0	MERGED:     479920	TO_CACHE:   16306134

DTLB TOTAL     ACCESS:   28342750  HIT:   24620847  MISS:    3721903  HIT %:    86.8682  MISS %:    13.1318   MPKI: 37.219
DTLB LOAD TRANSLATION ACCESS:   28342750  HIT:   24620847  MISS:    3721903  HIT %:    86.8682  MISS %:    13.1318   MPKI: 37.219
DTLB PREFETCH  REQUESTED:          0  ISSUED:          0  USEFUL:          0  USELESS:          0
DTLB USEFUL LOAD PREFETCHES:          0 PREFETCH ISSUED TO LOWER LEVEL:          0  ACCURACY: -nan
DTLB TIMELY PREFETCHES:          0 LATE PREFETCHES: 0 DROPPED PREFETCHES: 0
DTLB PREFETCHES SAME FILL-ORIGIN LEVEL: 0 DIFFERENT FILL-ORIGIN LEVEL: 0
DTLB AVERAGE MISS LATENCY: 22.1301 cycles
DTLB RQ	ACCESS:   31577417	FORWARD:          0	MERGED:    2907652	TO_CACHE:   28669765

STLB TOTAL     ACCESS:   10995623  HIT:    9332834  MISS:    1662789  HIT %:    84.8777  MISS %:    15.1223   MPKI: 16.6279
STLB LOAD TRANSLATION ACCESS:    3721903  HIT:    2059308  MISS:    1662595  HIT %:    55.3294  MISS %:    44.6706   MPKI: 16.6259
STLB TRANSLATION FROM L1D PREFETCHER ACCESS:    7273720  HIT:    7273526  MISS:        194  HIT %:    99.9973  MISS %: 0.00266714   MPKI: 0.00194
STLB PREFETCH  REQUESTED:          0  ISSUED:          0  USEFUL:        177  USELESS:         17
STLB USEFUL LOAD PREFETCHES:        177 PREFETCH ISSUED TO LOWER LEVEL:          0  ACCURACY: inf
STLB TIMELY PREFETCHES:        177 LATE PREFETCHES: 0 DROPPED PREFETCHES: 0
STLB PREFETCHES SAME FILL-ORIGIN LEVEL: 0 DIFFERENT FILL-ORIGIN LEVEL: 0
STLB AVERAGE MISS LATENCY: 29.2478 cycles
STLB RQ	ACCESS:   12503062	FORWARD:          0	MERGED:    1507430	TO_CACHE:   10995632

STLB Hit, L1D data hit: 0
STLB Hit, L2C data hit: 0
STLB Hit, LLC data hit: 0
STLB Hit, LLC data miss: 0
STLB STLB hints to L2: 0
L1D TOTAL     ACCESS:   39982561  HIT:   23862858  MISS:   16119703  HIT %:    59.6832  MISS %:    40.3168   MPKI: 161.197
L1D LOAD      ACCESS:   25911305  HIT:   17846844  MISS:    8064461  HIT %:    68.8767  MISS %:    31.1233   MPKI: 80.6446
L1D RFO       ACCESS:    5558059  HIT:    5537996  MISS:      20063  HIT %:     99.639  MISS %:   0.360971   MPKI: 0.20063
L1D PREFETCH  ACCESS:    8513197  HIT:     478018  MISS:    8035179  HIT %:    5.61502  MISS %:     94.385   MPKI: 80.3518
AGUS PREFETCH L1 MISS: 0
L1D PREFETCH  REQUESTED:   17565765  ISSUED:   17562332  USEFUL:     501261  USELESS:    7533930
L1D USEFUL LOAD PREFETCHES:     501261 PREFETCH ISSUED TO LOWER LEVEL:    8135369  ACCURACY: 6.1615
L1D TIMELY PREFETCHES:     501261 LATE PREFETCHES: 100186 DROPPED PREFETCHES: 0
L1D PREFETCHES SAME FILL-ORIGIN LEVEL: 8135369 DIFFERENT FILL-ORIGIN LEVEL: 0
L1D AVERAGE MISS LATENCY: 159.801 cycles
L1D RQ	ACCESS:   27440355	FORWARD:          0	MERGED:    1421077	TO_CACHE:   25991938
L1D WQ	ACCESS:    5743777	FORWARD:      27356	MERGED:     158298	TO_CACHE:    5585479
L1D PQ	ACCESS:    8781174	FORWARD:          0	MERGED:          0	TO_CACHE:    8781158

L1D UNIQUE REGIONS ACCESSED: 0
L1D REGIONS CONFLICTS: 0
L1D Cross Page Prefetch Requests: 0
L1D Same Page Prefetch Requests: 12736653
L1D ROI Sum of L1D PQ occupancy: 118416216
L1D PREFETCHES PUSHED FROM L2C: 0
L1I TOTAL     ACCESS:   16786054  HIT:   16786054  MISS:          0  HIT %:        100  MISS %:          0   MPKI: 0
L1I LOAD      ACCESS:   16786054  HIT:   16786054  MISS:          0  HIT %:        100  MISS %:          0   MPKI: 0
L1I PREFETCH  REQUESTED:          0  ISSUED:          0  USEFUL:          0  USELESS:          0
L1I USEFUL LOAD PREFETCHES:          0 PREFETCH ISSUED TO LOWER LEVEL:          0  ACCURACY: -nan
L1I TIMELY PREFETCHES:          0 LATE PREFETCHES: 0 DROPPED PREFETCHES: 0
L1I PREFETCHES SAME FILL-ORIGIN LEVEL: 0 DIFFERENT FILL-ORIGIN LEVEL: 0
L1I AVERAGE MISS LATENCY: -nan cycles
L1I RQ	ACCESS:   23553698	FORWARD:          0	MERGED:    6767644	TO_CACHE:   16786054

BTB TOTAL     ACCESS:   17480833  HIT:   17480819  MISS:         14  HIT %:    99.9999  MISS %: 8.00877e-05   MPKI: 0.00014
BTB BRANCH_DIRECT_JUMP	ACCESS:     167909  HIT:     167905  MISS:          4
BTB BRANCH_INDIRECT	ACCESS:          0  HIT:          0  MISS:          0
BTB BRANCH_CONDITIONAL	ACCESS:   17312906  HIT:   17312898  MISS:          8
BTB BRANCH_DIRECT_CALL	ACCESS:          9  HIT:          8  MISS:          1
BTB BRANCH_INDIRECT_CALL	ACCESS:          0  HIT:          0  MISS:          0
BTB BRANCH_RETURN	ACCESS:          9  HIT:          8  MISS:          1
BTB BRANCH_OTHER ACCESS:          0  HIT:          0  MISS:          0

L2C TOTAL     ACCESS:   20614763  HIT:    5438853  MISS:   15175910  HIT %:    26.3833  MISS %:    73.6167   MPKI: 151.759
L2C LOAD      ACCESS:    7964275  HIT:     609461  MISS:    7354814  HIT %:    7.65244  MISS %:    92.3476   MPKI: 73.5481
L2C DATA LOAD MPKI: 73.5481
L2C INSTRUCTION LOAD MPKI: 0
L2C RFO       ACCESS:      20062  HIT:        762  MISS:      19300  HIT %:    3.79823  MISS %:    96.2018   MPKI: 0.193
L2C PREFETCH  ACCESS:    8135365  HIT:     531091  MISS:    7604274  HIT %:    6.52818  MISS %:    93.4718   MPKI: 76.0427
AGUS PREFETCH L1 MISS: 0
L2C DATA PREFETCH MPKI: 76.0427
L2C INSTRUCTION PREFETCH MPKI: 0
L2C WRITEBACK ACCESS:    2832245  HIT:    2832184  MISS:         61  HIT %:    99.9978  MISS %: 0.00215377   MPKI: 0.00061
L2C LOAD TRANSLATION ACCESS:    1662622  HIT:    1465196  MISS:     197426  HIT %:    88.1256  MISS %:    11.8744   MPKI: 1.97426
L2C TRANSLATION FROM L1D PREFETCHER ACCESS:        194  HIT:        159  MISS:         35  HIT %:    81.9588  MISS %:    18.0412   MPKI: 0.00035
L2C PREFETCH  REQUESTED:          0  ISSUED:          0  USEFUL:     113592  USELESS:    7490648
L2C USEFUL LOAD PREFETCHES:     113592 PREFETCH ISSUED TO LOWER LEVEL:    7604278  ACCURACY: 1.49379
L2C TIMELY PREFETCHES:     113592 LATE PREFETCHES: 0 DROPPED PREFETCHES: 0
L2C PREFETCHES SAME FILL-ORIGIN LEVEL: 0 DIFFERENT FILL-ORIGIN LEVEL: 0
L2C AVERAGE MISS LATENCY: 154.368 cycles
L2C RQ	ACCESS:    9647155	FORWARD:          0	MERGED:          0	TO_CACHE:    9647154
L2C WQ	ACCESS:    2832245	FORWARD:          1	MERGED:          0	TO_CACHE:    2832245
L2C PQ	ACCESS:    8135369	FORWARD:          0	MERGED:          0	TO_CACHE:    8135369

L2C Instructions Evicting Data 0
L2C Translations Evicting Data 197290
L2C Data Evicting Data 14781094
L2C Instructions Evicting Instructions 0
L2C Translations Evicting Instructions 0
L2C Data Evicting Instructions 0
L2C Instructions Evicting Translations 0
L2C Translations Evicting Translations 171
L2C Data Evicting Translations 197294
L2C Dense regions hint from L2: 0
PSCL5 TOTAL     ACCESS:    1662789  HIT:    1662789  MISS:          0  HIT %:        100  MISS %:          0   MPKI: 0
PSCL5 LOAD TRANSLATION ACCESS:    1662595  HIT:    1662595  MISS:          0  HIT %:        100  MISS %:          0   MPKI: 0
PSCL5 TRANSLATION FROM L1D PREFETCHER ACCESS:        194  HIT:        194  MISS:          0  HIT %:        100  MISS %:          0   MPKI: 0
PSCL5 PREFETCH  REQUESTED:          0  ISSUED:          0  USEFUL:          0  USELESS:          0
PSCL5 USEFUL LOAD PREFETCHES:          0 PREFETCH ISSUED TO LOWER LEVEL:          0  ACCURACY: -nan
PSCL5 TIMELY PREFETCHES:          0 LATE PREFETCHES: 0 DROPPED PREFETCHES: 0
PSCL5 PREFETCHES SAME FILL-ORIGIN LEVEL: 0 DIFFERENT FILL-ORIGIN LEVEL: 0

PSCL4 TOTAL     ACCESS:    1662789  HIT:    1662789  MISS:          0  HIT %:        100  MISS %:          0   MPKI: 0
PSCL4 LOAD TRANSLATION ACCESS:    1662595  HIT:    1662595  MISS:          0  HIT %:        100  MISS %:          0   MPKI: 0
PSCL4 TRANSLATION FROM L1D PREFETCHER ACCESS:        194  HIT:        194  MISS:          0  HIT %:        100  MISS %:          0   MPKI: 0
PSCL4 PREFETCH  REQUESTED:          0  ISSUED:          0  USEFUL:          0  USELESS:          0
PSCL4 USEFUL LOAD PREFETCHES:          0 PREFETCH ISSUED TO LOWER LEVEL:          0  ACCURACY: -nan
PSCL4 TIMELY PREFETCHES:          0 LATE PREFETCHES: 0 DROPPED PREFETCHES: 0
PSCL4 PREFETCHES SAME FILL-ORIGIN LEVEL: 0 DIFFERENT FILL-ORIGIN LEVEL: 0

PSCL3 TOTAL     ACCESS:    1662789  HIT:    1662789  MISS:          0  HIT %:        100  MISS %:          0   MPKI: 0
PSCL3 LOAD TRANSLATION ACCESS:    1662595  HIT:    1662595  MISS:          0  HIT %:        100  MISS %:          0   MPKI: 0
PSCL3 TRANSLATION FROM L1D PREFETCHER ACCESS:        194  HIT:        194  MISS:          0  HIT %:        100  MISS %:          0   MPKI: 0
PSCL3 PREFETCH  REQUESTED:          0  ISSUED:          0  USEFUL:          0  USELESS:          0
PSCL3 USEFUL LOAD PREFETCHES:          0 PREFETCH ISSUED TO LOWER LEVEL:          0  ACCURACY: -nan
PSCL3 TIMELY PREFETCHES:          0 LATE PREFETCHES: 0 DROPPED PREFETCHES: 0
PSCL3 PREFETCHES SAME FILL-ORIGIN LEVEL: 0 DIFFERENT FILL-ORIGIN LEVEL: 0

PSCL2 TOTAL     ACCESS:    1662789  HIT:    1662735  MISS:         54  HIT %:    99.9968  MISS %: 0.00324756   MPKI: 0.00054
PSCL2 LOAD TRANSLATION ACCESS:    1662595  HIT:    1662541  MISS:         54  HIT %:    99.9968  MISS %: 0.00324793   MPKI: 0.00054
PSCL2 TRANSLATION FROM L1D PREFETCHER ACCESS:        194  HIT:        194  MISS:          0  HIT %:        100  MISS %:          0   MPKI: 0
PSCL2 PREFETCH  REQUESTED:          0  ISSUED:          0  USEFUL:          0  USELESS:          0
PSCL2 USEFUL LOAD PREFETCHES:          0 PREFETCH ISSUED TO LOWER LEVEL:          0  ACCURACY: -nan
PSCL2 TIMELY PREFETCHES:          0 LATE PREFETCHES: 0 DROPPED PREFETCHES: 0
PSCL2 PREFETCHES SAME FILL-ORIGIN LEVEL: 0 DIFFERENT FILL-ORIGIN LEVEL: 0

LLC TOTAL     ACCESS:   17963543  HIT:    7366848  MISS:   10596695  HIT %:      41.01  MISS %:      58.99   MPKI: 105.967
LLC LOAD      ACCESS:    7354814  HIT:    2322999  MISS:    5031815  HIT %:    31.5847  MISS %:    68.4153   MPKI: 50.3181
LLC RFO       ACCESS:      19300  HIT:        187  MISS:      19113  HIT %:   0.968912  MISS %:    99.0311   MPKI: 0.19113
LLC PREFETCH  ACCESS:    7604274  HIT:    2082941  MISS:    5521333  HIT %:    27.3917  MISS %:    72.6083   MPKI: 55.2133
AGUS PREFETCH L1 MISS: 0
LLC WRITEBACK ACCESS:    2787694  HIT:    2787653  MISS:         41  HIT %:    99.9985  MISS %: 0.00147075   MPKI: 0.00041
LLC LOAD TRANSLATION ACCESS:     197426  HIT:     173039  MISS:      24387  HIT %:    87.6475  MISS %:    12.3525   MPKI: 0.24387
LLC TRANSLATION FROM L1D PREFETCHER ACCESS:         35  HIT:         29  MISS:          6  HIT %:    82.8571  MISS %:    17.1429   MPKI: 6e-05
LLC PREFETCH  REQUESTED:          0  ISSUED:          0  USEFUL:     469945  USELESS:    5051653
LLC USEFUL LOAD PREFETCHES:     469945 PREFETCH ISSUED TO LOWER LEVEL:    5521335  ACCURACY: 8.51144
LLC TIMELY PREFETCHES:     469945 LATE PREFETCHES: 0 DROPPED PREFETCHES: 0
LLC PREFETCHES SAME FILL-ORIGIN LEVEL: 0 DIFFERENT FILL-ORIGIN LEVEL: 0
LLC AVERAGE MISS LATENCY: 178.08 cycles
LLC RQ	ACCESS:    7571575	FORWARD:          0	MERGED:          0	TO_CACHE:    7571575
LLC WQ	ACCESS:    2787694	FORWARD:          2	MERGED:          0	TO_CACHE:    2787694
LLC PQ	ACCESS:    7604278	FORWARD:          0	MERGED:          0	TO_CACHE:    7604276

LLC Dense regions hint to LLC: 0

RAW hits: 853062
Loads Generated: 28293417
Loads sent to L1D: 27440355
Stores Generated: 5743776
Stores sent to L1D: 5743777
Major fault: 0 Minor fault: 20661
Allocated PAGES: 20661

stream: 
stream:times selected: 12731115
stream:pref_filled: 10807292
stream:pref_useful: 221705
stream:pref_late: 132403
stream:misses: 2631446
stream:misses_by_poll: 0

CS: 
CS:times selected: 620506
CS:pref_filled: 590342
CS:pref_useful: 511108
CS:pref_late: 4650
CS:misses: 57244
CS:misses_by_poll: 186

CPLX: 
CPLX:times selected: 12032353
CPLX:pref_filled: 231752
CPLX:pref_useful: 10528
CPLX:pref_late: 4544
CPLX:misses: 9026268
CPLX:misses_by_poll: 38

NL_L1: 
NL:times selected: 25080
NL:pref_filled: 23558
NL:pref_useful: 401
NL:pref_late: 153
NL:misses: 24521
NL:misses_by_poll: 0

total selections: 25409054
total_filled: 8035179
total_useful: 501261
total_late: 142889
total_polluted: 224
total_misses_after_warmup: 8145094
conflicts: 16962

test: 5378990

DRAM Statistics
 CHANNEL 0
 RQ ROW_BUFFER_HIT:    2049022  ROW_BUFFER_MISS:    8547265
 DBUS_CONGESTED:       8618
 WQ ROW_BUFFER_HIT:    1594483  ROW_BUFFER_MISS:     866794  FULL:          0

 AVG_CONGESTED_CYCLE: 4
 All warmup complete: 2
Channel 0 Bank busy for read cycles: 0
Channel 0 Bank busy for write cycles: 0
Channel 0
Rank 0
0banks busy for read cycles: 11309698
0banks busy for write cycles: 100280
1banks busy for read cycles: 148304105
1banks busy for write cycles: 22786814
2banks busy for read cycles: 167983762
2banks busy for write cycles: 32835970
3banks busy for read cycles: 100071551
3banks busy for write cycles: 37543624
4banks busy for read cycles: 68608064
4banks busy for write cycles: 36282407
5banks busy for read cycles: 32221798
5banks busy for write cycles: 30536216
6banks busy for read cycles: 16235701
6banks busy for write cycles: 22448232
7banks busy for read cycles: 6960629
7banks busy for write cycles: 14320498
8banks busy for read cycles: 2319821
8banks busy for write cycles: 7733518

CPU 0 Branch Prediction Accuracy: 83.1166% MPKI: 29.55 Average ROB Occupancy at Mispredict: 24.5825
Branch types
NOT_BRANCH: 82497361 82.4974%
BRANCH_DIRECT_JUMP: 167909 0.167909%
BRANCH_INDIRECT: 0 0%
BRANCH_CONDITIONAL: 17334501 17.3345%
BRANCH_DIRECT_CALL: 9 9e-06%
BRANCH_INDIRECT_CALL: 0 0%
BRANCH_RETURN: 9 9e-06%
BRANCH_OTHER: 0 0%

DRAM PAGES: 1048576
Allocated PAGES: 20661
