
*** ChampSim Multicore Out-of-Order Simulator ***

Warmup Instructions: 50000000
Simulation Instructions: 100000000
Number of CPUs: 1
LLC sets: 2048
LLC ways: 16
Off-chip DRAM Size: 4096 MB Channels: 1 Width: 64-bit Data Rate: 6400 MT/s
CPU 0 runs ./traces/GAP/bc-3.trace.gz
.gz
CPU 0 Bimodal branch predictor
BTB has LRU replacement policy
ITLB has LRU replacement policy
DTLB has LRU replacement policy
STLB has LRU replacement policy
L1I has LRU replacement policy
L1D has LRU replacement policy
L2C has LRU replacement policy
LLC has LRU replacement policy
Heartbeat CPU 0 instructions: 10000001 cycles: 3649476 heartbeat IPC: 2.74012 cumulative IPC: 2.74012 (Simulation time: 0 hr 0 min 39 sec) 
Heartbeat CPU 0 instructions: 20000000 cycles: 6679278 heartbeat IPC: 3.30055 cumulative IPC: 2.99434 (Simulation time: 0 hr 1 min 8 sec) 
Heartbeat CPU 0 instructions: 30000000 cycles: 9678508 heartbeat IPC: 3.33419 cumulative IPC: 3.09965 (Simulation time: 0 hr 1 min 36 sec) 
Heartbeat CPU 0 instructions: 40000000 cycles: 12668634 heartbeat IPC: 3.34434 cumulative IPC: 3.1574 (Simulation time: 0 hr 2 min 4 sec) 
Heartbeat CPU 0 instructions: 50000003 cycles: 15656510 heartbeat IPC: 3.34686 cumulative IPC: 3.19356 (Simulation time: 0 hr 2 min 32 sec) 

Warmup complete CPU 0 instructions: 50000003 cycles: 15656510 (Simulation time: 0 hr 2 min 32 sec) 

Heartbeat CPU 0 instructions: 60000000 cycles: 81229255 heartbeat IPC: 0.152502 cumulative IPC: 0.152502 (Simulation time: 0 hr 3 min 27 sec) 
Heartbeat CPU 0 instructions: 70000000 cycles: 146861263 heartbeat IPC: 0.152365 cumulative IPC: 0.152433 (Simulation time: 0 hr 4 min 22 sec) 
Heartbeat CPU 0 instructions: 80000000 cycles: 212680676 heartbeat IPC: 0.151931 cumulative IPC: 0.152266 (Simulation time: 0 hr 5 min 17 sec) 
Heartbeat CPU 0 instructions: 90000002 cycles: 278267415 heartbeat IPC: 0.15247 cumulative IPC: 0.152317 (Simulation time: 0 hr 6 min 12 sec) 
Heartbeat CPU 0 instructions: 100000000 cycles: 343436801 heartbeat IPC: 0.153446 cumulative IPC: 0.152541 (Simulation time: 0 hr 7 min 7 sec) 
Heartbeat CPU 0 instructions: 110000002 cycles: 408894890 heartbeat IPC: 0.15277 cumulative IPC: 0.152579 (Simulation time: 0 hr 8 min 2 sec) 
Heartbeat CPU 0 instructions: 120000000 cycles: 473546365 heartbeat IPC: 0.154675 cumulative IPC: 0.152875 (Simulation time: 0 hr 8 min 56 sec) 
Heartbeat CPU 0 instructions: 130000002 cycles: 538888239 heartbeat IPC: 0.153041 cumulative IPC: 0.152896 (Simulation time: 0 hr 9 min 51 sec) 
Heartbeat CPU 0 instructions: 140000000 cycles: 604152820 heartbeat IPC: 0.153222 cumulative IPC: 0.152932 (Simulation time: 0 hr 10 min 46 sec) 
Heartbeat CPU 0 instructions: 150000000 cycles: 669574556 heartbeat IPC: 0.152854 cumulative IPC: 0.152924 (Simulation time: 0 hr 11 min 41 sec) 
Finished CPU 0 instructions: 100000001 cycles: 653918082 cumulative IPC: 0.152924 (Simulation time: 0 hr 11 min 41 sec) 

ChampSim completed all CPUs

Region of Interest Statistics

CPU 0 cumulative IPC: 0.152924 instructions: 100000001 cycles: 653918082
ITLB TOTAL     ACCESS:   20645804  HIT:   20645804  MISS:          0  HIT %:        100  MISS %:          0   MPKI: 0
ITLB LOAD TRANSLATION ACCESS:   20645804  HIT:   20645804  MISS:          0  HIT %:        100  MISS %:          0   MPKI: 0
ITLB PREFETCH  REQUESTED:          0  ISSUED:          0  USEFUL:          0  USELESS:          0
ITLB USEFUL LOAD PREFETCHES:          0 PREFETCH ISSUED TO LOWER LEVEL:          0  ACCURACY: -nan
ITLB TIMELY PREFETCHES:          0 LATE PREFETCHES: 0 DROPPED PREFETCHES: 0
ITLB PREFETCHES SAME FILL-ORIGIN LEVEL: 0 DIFFERENT FILL-ORIGIN LEVEL: 0
ITLB AVERAGE MISS LATENCY: -nan cycles
ITLB RQ	ACCESS:   20891630	FORWARD:          0	MERGED:     245827	TO_CACHE:   20645803

DTLB TOTAL     ACCESS:   22358477  HIT:   18504516  MISS:    3853961  HIT %:    82.7629  MISS %:    17.2371   MPKI: 38.5396
DTLB LOAD TRANSLATION ACCESS:   22358477  HIT:   18504516  MISS:    3853961  HIT %:    82.7629  MISS %:    17.2371   MPKI: 38.5396
DTLB PREFETCH  REQUESTED:          0  ISSUED:          0  USEFUL:          0  USELESS:          0
DTLB USEFUL LOAD PREFETCHES:          0 PREFETCH ISSUED TO LOWER LEVEL:          0  ACCURACY: -nan
DTLB TIMELY PREFETCHES:          0 LATE PREFETCHES: 0 DROPPED PREFETCHES: 0
DTLB PREFETCHES SAME FILL-ORIGIN LEVEL: 0 DIFFERENT FILL-ORIGIN LEVEL: 0
DTLB AVERAGE MISS LATENCY: 17.3611 cycles
DTLB RQ	ACCESS:   23956061	FORWARD:          0	MERGED:    1405167	TO_CACHE:   22550894

STLB TOTAL     ACCESS:    3853961  HIT:    2692194  MISS:    1161767  HIT %:    69.8552  MISS %:    30.1448   MPKI: 11.6177
STLB LOAD TRANSLATION ACCESS:    3853961  HIT:    2692194  MISS:    1161767  HIT %:    69.8552  MISS %:    30.1448   MPKI: 11.6177
STLB PREFETCH  REQUESTED:          0  ISSUED:          0  USEFUL:          0  USELESS:          0
STLB USEFUL LOAD PREFETCHES:          0 PREFETCH ISSUED TO LOWER LEVEL:          0  ACCURACY: -nan
STLB TIMELY PREFETCHES:          0 LATE PREFETCHES: 0 DROPPED PREFETCHES: 0
STLB PREFETCHES SAME FILL-ORIGIN LEVEL: 0 DIFFERENT FILL-ORIGIN LEVEL: 0
STLB AVERAGE MISS LATENCY: 27.0076 cycles
STLB RQ	ACCESS:    3853960	FORWARD:          0	MERGED:          0	TO_CACHE:    3853960

STLB Hit, L1D data hit: 0
STLB Hit, L2C data hit: 0
STLB Hit, LLC data hit: 0
STLB Hit, LLC data miss: 0
STLB STLB hints to L2: 0
L1D TOTAL     ACCESS:   23240431  HIT:   14416610  MISS:    8823821  HIT %:    62.0325  MISS %:    37.9675   MPKI: 88.2382
L1D LOAD      ACCESS:   19731198  HIT:   10927892  MISS:    8803306  HIT %:    55.3838  MISS %:    44.6162   MPKI: 88.0331
L1D RFO       ACCESS:    3509233  HIT:    3488718  MISS:      20515  HIT %:    99.4154  MISS %:   0.584601   MPKI: 0.20515
L1D PREFETCH  REQUESTED:          0  ISSUED:          0  USEFUL:          0  USELESS:          0
L1D USEFUL LOAD PREFETCHES:          0 PREFETCH ISSUED TO LOWER LEVEL:          0  ACCURACY: -nan
L1D TIMELY PREFETCHES:          0 LATE PREFETCHES: 0 DROPPED PREFETCHES: 0
L1D PREFETCHES SAME FILL-ORIGIN LEVEL: 0 DIFFERENT FILL-ORIGIN LEVEL: 0
L1D AVERAGE MISS LATENCY: 124.555 cycles
L1D RQ	ACCESS:   24213033	FORWARD:          0	MERGED:    3751330	TO_CACHE:   20417771
L1D WQ	ACCESS:    3549972	FORWARD:      43932	MERGED:      11682	TO_CACHE:    3538290

L1D UNIQUE REGIONS ACCESSED: 0
L1D REGIONS CONFLICTS: 0
L1D Cross Page Prefetch Requests: 0
L1D Same Page Prefetch Requests: 0
L1D ROI Sum of L1D PQ occupancy: 0
L1D PREFETCHES PUSHED FROM L2C: 0
L1I TOTAL     ACCESS:   20891631  HIT:   20891631  MISS:          0  HIT %:        100  MISS %:          0   MPKI: 0
L1I LOAD      ACCESS:   20891631  HIT:   20891631  MISS:          0  HIT %:        100  MISS %:          0   MPKI: 0
L1I PREFETCH  REQUESTED:          0  ISSUED:          0  USEFUL:          0  USELESS:          0
L1I USEFUL LOAD PREFETCHES:          0 PREFETCH ISSUED TO LOWER LEVEL:          0  ACCURACY: -nan
L1I TIMELY PREFETCHES:          0 LATE PREFETCHES: 0 DROPPED PREFETCHES: 0
L1I PREFETCHES SAME FILL-ORIGIN LEVEL: 0 DIFFERENT FILL-ORIGIN LEVEL: 0
L1I AVERAGE MISS LATENCY: -nan cycles
L1I RQ	ACCESS:   27974927	FORWARD:          0	MERGED:    7083297	TO_CACHE:   20891630

BTB TOTAL     ACCESS:   21387461  HIT:   21387447  MISS:         14  HIT %:    99.9999  MISS %: 6.54589e-05   MPKI: 0.00014
BTB BRANCH_DIRECT_JUMP	ACCESS:     170875  HIT:     170871  MISS:          4
BTB BRANCH_INDIRECT	ACCESS:          0  HIT:          0  MISS:          0
BTB BRANCH_CONDITIONAL	ACCESS:   21216566  HIT:   21216558  MISS:          8
BTB BRANCH_DIRECT_CALL	ACCESS:         10  HIT:          9  MISS:          1
BTB BRANCH_INDIRECT_CALL	ACCESS:          0  HIT:          0  MISS:          0
BTB BRANCH_RETURN	ACCESS:         10  HIT:          9  MISS:          1
BTB BRANCH_OTHER ACCESS:          0  HIT:          0  MISS:          0

L2C TOTAL     ACCESS:   11759615  HIT:    4240878  MISS:    7518737  HIT %:    36.0631  MISS %:    63.9369   MPKI: 75.1874
L2C LOAD      ACCESS:    8803305  HIT:    1387382  MISS:    7415923  HIT %:    15.7598  MISS %:    84.2402   MPKI: 74.1592
L2C DATA LOAD MPKI: 74.1592
L2C INSTRUCTION LOAD MPKI: 0
L2C RFO       ACCESS:      20515  HIT:        165  MISS:      20350  HIT %:    0.80429  MISS %:    99.1957   MPKI: 0.2035
L2C WRITEBACK ACCESS:    1773959  HIT:    1773882  MISS:         77  HIT %:    99.9957  MISS %: 0.00434057   MPKI: 0.00077
L2C LOAD TRANSLATION ACCESS:    1161836  HIT:    1079449  MISS:      82387  HIT %:    92.9089  MISS %:     7.0911   MPKI: 0.82387
L2C PREFETCH  REQUESTED:          0  ISSUED:          0  USEFUL:          0  USELESS:          0
L2C USEFUL LOAD PREFETCHES:          0 PREFETCH ISSUED TO LOWER LEVEL:          0  ACCURACY: -nan
L2C TIMELY PREFETCHES:          0 LATE PREFETCHES: 0 DROPPED PREFETCHES: 0
L2C PREFETCHES SAME FILL-ORIGIN LEVEL: 0 DIFFERENT FILL-ORIGIN LEVEL: 0
L2C AVERAGE MISS LATENCY: 129.022 cycles
L2C RQ	ACCESS:    9985656	FORWARD:          0	MERGED:          0	TO_CACHE:    9985656
L2C WQ	ACCESS:    1773959	FORWARD:          0	MERGED:          0	TO_CACHE:    1773959

L2C Instructions Evicting Data 0
L2C Translations Evicting Data 82329
L2C Data Evicting Data 7353842
L2C Instructions Evicting Instructions 0
L2C Translations Evicting Instructions 0
L2C Data Evicting Instructions 0
L2C Instructions Evicting Translations 0
L2C Translations Evicting Translations 58
L2C Data Evicting Translations 82431
L2C Dense regions hint from L2: 0
PSCL5 TOTAL     ACCESS:    1161766  HIT:    1161766  MISS:          0  HIT %:        100  MISS %:          0   MPKI: 0
PSCL5 LOAD TRANSLATION ACCESS:    1161766  HIT:    1161766  MISS:          0  HIT %:        100  MISS %:          0   MPKI: 0
PSCL5 PREFETCH  REQUESTED:          0  ISSUED:          0  USEFUL:          0  USELESS:          0
PSCL5 USEFUL LOAD PREFETCHES:          0 PREFETCH ISSUED TO LOWER LEVEL:          0  ACCURACY: -nan
PSCL5 TIMELY PREFETCHES:          0 LATE PREFETCHES: 0 DROPPED PREFETCHES: 0
PSCL5 PREFETCHES SAME FILL-ORIGIN LEVEL: 0 DIFFERENT FILL-ORIGIN LEVEL: 0

PSCL4 TOTAL     ACCESS:    1161766  HIT:    1161766  MISS:          0  HIT %:        100  MISS %:          0   MPKI: 0
PSCL4 LOAD TRANSLATION ACCESS:    1161766  HIT:    1161766  MISS:          0  HIT %:        100  MISS %:          0   MPKI: 0
PSCL4 PREFETCH  REQUESTED:          0  ISSUED:          0  USEFUL:          0  USELESS:          0
PSCL4 USEFUL LOAD PREFETCHES:          0 PREFETCH ISSUED TO LOWER LEVEL:          0  ACCURACY: -nan
PSCL4 TIMELY PREFETCHES:          0 LATE PREFETCHES: 0 DROPPED PREFETCHES: 0
PSCL4 PREFETCHES SAME FILL-ORIGIN LEVEL: 0 DIFFERENT FILL-ORIGIN LEVEL: 0

PSCL3 TOTAL     ACCESS:    1161766  HIT:    1161766  MISS:          0  HIT %:        100  MISS %:          0   MPKI: 0
PSCL3 LOAD TRANSLATION ACCESS:    1161766  HIT:    1161766  MISS:          0  HIT %:        100  MISS %:          0   MPKI: 0
PSCL3 PREFETCH  REQUESTED:          0  ISSUED:          0  USEFUL:          0  USELESS:          0
PSCL3 USEFUL LOAD PREFETCHES:          0 PREFETCH ISSUED TO LOWER LEVEL:          0  ACCURACY: -nan
PSCL3 TIMELY PREFETCHES:          0 LATE PREFETCHES: 0 DROPPED PREFETCHES: 0
PSCL3 PREFETCHES SAME FILL-ORIGIN LEVEL: 0 DIFFERENT FILL-ORIGIN LEVEL: 0

PSCL2 TOTAL     ACCESS:    1161766  HIT:    1161696  MISS:         70  HIT %:     99.994  MISS %: 0.00602531   MPKI: 0.0007
PSCL2 LOAD TRANSLATION ACCESS:    1161766  HIT:    1161696  MISS:         70  HIT %:     99.994  MISS %: 0.00602531   MPKI: 0.0007
PSCL2 PREFETCH  REQUESTED:          0  ISSUED:          0  USEFUL:          0  USELESS:          0
PSCL2 USEFUL LOAD PREFETCHES:          0 PREFETCH ISSUED TO LOWER LEVEL:          0  ACCURACY: -nan
PSCL2 TIMELY PREFETCHES:          0 LATE PREFETCHES: 0 DROPPED PREFETCHES: 0
PSCL2 PREFETCHES SAME FILL-ORIGIN LEVEL: 0 DIFFERENT FILL-ORIGIN LEVEL: 0

LLC TOTAL     ACCESS:    9257193  HIT:    4753644  MISS:    4503549  HIT %:    51.3508  MISS %:    48.6492   MPKI: 45.0355
LLC LOAD      ACCESS:    7415923  HIT:    2949168  MISS:    4466755  HIT %:    39.7681  MISS %:    60.2319   MPKI: 44.6675
LLC RFO       ACCESS:      20350  HIT:        491  MISS:      19859  HIT %:    2.41278  MISS %:    97.5872   MPKI: 0.19859
LLC WRITEBACK ACCESS:    1738533  HIT:    1738295  MISS:        238  HIT %:    99.9863  MISS %:  0.0136897   MPKI: 0.00238
LLC LOAD TRANSLATION ACCESS:      82387  HIT:      65690  MISS:      16697  HIT %:    79.7335  MISS %:    20.2665   MPKI: 0.16697
LLC PREFETCH  REQUESTED:          0  ISSUED:          0  USEFUL:          0  USELESS:          0
LLC USEFUL LOAD PREFETCHES:          0 PREFETCH ISSUED TO LOWER LEVEL:          0  ACCURACY: -nan
LLC TIMELY PREFETCHES:          0 LATE PREFETCHES: 0 DROPPED PREFETCHES: 0
LLC PREFETCHES SAME FILL-ORIGIN LEVEL: 0 DIFFERENT FILL-ORIGIN LEVEL: 0
LLC AVERAGE MISS LATENCY: 165.258 cycles
LLC RQ	ACCESS:    7518660	FORWARD:          0	MERGED:          0	TO_CACHE:    7518660
LLC WQ	ACCESS:    1738532	FORWARD:          0	MERGED:          0	TO_CACHE:    1738532

LLC Dense regions hint to LLC: 0

RAW hits: 86091
Loads Generated: 24299125
Loads sent to L1D: 24213033
Stores Generated: 3549968
Stores sent to L1D: 3549972
Major fault: 0 Minor fault: 23747
Allocated PAGES: 23747

DRAM Statistics
 CHANNEL 0
 RQ ROW_BUFFER_HIT:     755670  ROW_BUFFER_MISS:    3747626
 DBUS_CONGESTED:       1730
 WQ ROW_BUFFER_HIT:     874154  ROW_BUFFER_MISS:     645780  FULL:          0

 AVG_CONGESTED_CYCLE: 4
 All warmup complete: 2
Channel 0 Bank busy for read cycles: 0
Channel 0 Bank busy for write cycles: 0
Channel 0
Rank 0
0banks busy for read cycles: 74656454
0banks busy for write cycles: 472195
1banks busy for read cycles: 218697698
1banks busy for write cycles: 97700679
2banks busy for read cycles: 118063759
2banks busy for write cycles: 63942993
3banks busy for read cycles: 34081369
3banks busy for write cycles: 26390180
4banks busy for read cycles: 8038705
4banks busy for write cycles: 7712755
5banks busy for read cycles: 1463790
5banks busy for write cycles: 1698545
6banks busy for read cycles: 218112
6banks busy for write cycles: 277692
7banks busy for read cycles: 66635
7banks busy for write cycles: 49100
8banks busy for read cycles: 221266
8banks busy for write cycles: 166156

CPU 0 Branch Prediction Accuracy: 90.3568% MPKI: 20.6367 Average ROB Occupancy at Mispredict: 33.649
Branch types
NOT_BRANCH: 78599477 78.5995%
BRANCH_DIRECT_JUMP: 170875 0.170875%
BRANCH_INDIRECT: 0 0%
BRANCH_CONDITIONAL: 21229378 21.2294%
BRANCH_DIRECT_CALL: 10 1e-05%
BRANCH_INDIRECT_CALL: 0 0%
BRANCH_RETURN: 10 1e-05%
BRANCH_OTHER: 0 0%

DRAM PAGES: 1048576
Allocated PAGES: 23747
