
*** ChampSim Multicore Out-of-Order Simulator ***

Warmup Instructions: 50000000
Simulation Instructions: 100000000
Number of CPUs: 1
LLC sets: 2048
LLC ways: 16
Off-chip DRAM Size: 4096 MB Channels: 1 Width: 64-bit Data Rate: 6400 MT/s
CPU 0 runs ./traces/GAP/bc-5.trace.gz
.gz
CPU 0 Bimodal branch predictor
BTB has LRU replacement policy
ITLB has LRU replacement policy
DTLB has LRU replacement policy
STLB has LRU replacement policy
L1I has LRU replacement policy
L1D has LRU replacement policy
Ideal ISB Prefetching
L2C has LRU replacement policy
LLC has LRU replacement policy
Heartbeat CPU 0 instructions: 10000002 cycles: 3700025 heartbeat IPC: 2.70268 cumulative IPC: 2.70268 (Simulation time: 0 hr 1 min 22 sec) 
Heartbeat CPU 0 instructions: 20000000 cycles: 6942945 heartbeat IPC: 3.08364 cumulative IPC: 2.88062 (Simulation time: 0 hr 3 min 13 sec) 
Heartbeat CPU 0 instructions: 30000001 cycles: 10182479 heartbeat IPC: 3.08686 cumulative IPC: 2.94624 (Simulation time: 0 hr 5 min 10 sec) 
Heartbeat CPU 0 instructions: 40000000 cycles: 13415755 heartbeat IPC: 3.09284 cumulative IPC: 2.98157 (Simulation time: 0 hr 7 min 6 sec) 
Heartbeat CPU 0 instructions: 50000002 cycles: 16657030 heartbeat IPC: 3.08521 cumulative IPC: 3.00174 (Simulation time: 0 hr 9 min 10 sec) 

Warmup complete CPU 0 instructions: 50000002 cycles: 16657030 (Simulation time: 0 hr 9 min 10 sec) 

Heartbeat CPU 0 instructions: 60000000 cycles: 65041062 heartbeat IPC: 0.20668 cumulative IPC: 0.20668 (Simulation time: 0 hr 11 min 54 sec) 
Heartbeat CPU 0 instructions: 70000000 cycles: 112787349 heartbeat IPC: 0.20944 cumulative IPC: 0.208051 (Simulation time: 0 hr 14 min 39 sec) 
Heartbeat CPU 0 instructions: 80000000 cycles: 160801095 heartbeat IPC: 0.208274 cumulative IPC: 0.208125 (Simulation time: 0 hr 17 min 28 sec) 
Heartbeat CPU 0 instructions: 90000000 cycles: 208465947 heartbeat IPC: 0.209798 cumulative IPC: 0.208541 (Simulation time: 0 hr 20 min 17 sec) 
Heartbeat CPU 0 instructions: 100000000 cycles: 255584182 heartbeat IPC: 0.212232 cumulative IPC: 0.209269 (Simulation time: 0 hr 23 min 7 sec) 
Heartbeat CPU 0 instructions: 110000000 cycles: 302657140 heartbeat IPC: 0.212436 cumulative IPC: 0.20979 (Simulation time: 0 hr 25 min 57 sec) 
Heartbeat CPU 0 instructions: 120000000 cycles: 349634807 heartbeat IPC: 0.212867 cumulative IPC: 0.210224 (Simulation time: 0 hr 28 min 50 sec) 
Heartbeat CPU 0 instructions: 130000001 cycles: 396572776 heartbeat IPC: 0.213047 cumulative IPC: 0.210573 (Simulation time: 0 hr 31 min 42 sec) 
Heartbeat CPU 0 instructions: 140000000 cycles: 437598599 heartbeat IPC: 0.243749 cumulative IPC: 0.213806 (Simulation time: 0 hr 34 min 23 sec) 
Heartbeat CPU 0 instructions: 150000002 cycles: 472998188 heartbeat IPC: 0.282489 cumulative IPC: 0.219134 (Simulation time: 0 hr 36 min 52 sec) 
Finished CPU 0 instructions: 100000000 cycles: 456341158 cumulative IPC: 0.219134 (Simulation time: 0 hr 36 min 52 sec) 

ChampSim completed all CPUs

Region of Interest Statistics

CPU 0 cumulative IPC: 0.219134 instructions: 100000000 cycles: 456341158
ITLB TOTAL     ACCESS:   11715590  HIT:   11715590  MISS:          0  HIT %:        100  MISS %:          0   MPKI: 0
ITLB LOAD TRANSLATION ACCESS:   11715590  HIT:   11715590  MISS:          0  HIT %:        100  MISS %:          0   MPKI: 0
ITLB PREFETCH  REQUESTED:          0  ISSUED:          0  USEFUL:          0  USELESS:          0
ITLB USEFUL LOAD PREFETCHES:          0 PREFETCH ISSUED TO LOWER LEVEL:          0  ACCURACY: -nan
ITLB TIMELY PREFETCHES:          0 LATE PREFETCHES: 0 DROPPED PREFETCHES: 0
ITLB PREFETCHES SAME FILL-ORIGIN LEVEL: 0 DIFFERENT FILL-ORIGIN LEVEL: 0
ITLB AVERAGE MISS LATENCY: -nan cycles
ITLB RQ	ACCESS:   11952843	FORWARD:          0	MERGED:     237254	TO_CACHE:   11715589

DTLB TOTAL     ACCESS:   23607927  HIT:   20937229  MISS:    2670698  HIT %:    88.6873  MISS %:    11.3127   MPKI: 26.707
DTLB LOAD TRANSLATION ACCESS:   23607927  HIT:   20937229  MISS:    2670698  HIT %:    88.6873  MISS %:    11.3127   MPKI: 26.707
DTLB PREFETCH  REQUESTED:          0  ISSUED:          0  USEFUL:          0  USELESS:          0
DTLB USEFUL LOAD PREFETCHES:          0 PREFETCH ISSUED TO LOWER LEVEL:          0  ACCURACY: -nan
DTLB TIMELY PREFETCHES:          0 LATE PREFETCHES: 0 DROPPED PREFETCHES: 0
DTLB PREFETCHES SAME FILL-ORIGIN LEVEL: 0 DIFFERENT FILL-ORIGIN LEVEL: 0
DTLB AVERAGE MISS LATENCY: 27.1255 cycles
DTLB RQ	ACCESS:   26268977	FORWARD:          0	MERGED:    2230441	TO_CACHE:   24038536

STLB TOTAL     ACCESS:    2670697  HIT:    1430257  MISS:    1240440  HIT %:    53.5537  MISS %:    46.4463   MPKI: 12.4044
STLB LOAD TRANSLATION ACCESS:    2670697  HIT:    1430257  MISS:    1240440  HIT %:    53.5537  MISS %:    46.4463   MPKI: 12.4044
STLB PREFETCH  REQUESTED:          0  ISSUED:          0  USEFUL:          0  USELESS:          0
STLB USEFUL LOAD PREFETCHES:          0 PREFETCH ISSUED TO LOWER LEVEL:          0  ACCURACY: -nan
STLB TIMELY PREFETCHES:          0 LATE PREFETCHES: 0 DROPPED PREFETCHES: 0
STLB PREFETCHES SAME FILL-ORIGIN LEVEL: 0 DIFFERENT FILL-ORIGIN LEVEL: 0
STLB AVERAGE MISS LATENCY: 38.4737 cycles
STLB RQ	ACCESS:    2670697	FORWARD:          0	MERGED:          0	TO_CACHE:    2670697

STLB Hit, L1D data hit: 0
STLB Hit, L2C data hit: 0
STLB Hit, LLC data hit: 0
STLB Hit, LLC data miss: 0
STLB STLB hints to L2: 0
L1D TOTAL     ACCESS:   25713476  HIT:   17446312  MISS:    8267164  HIT %:    67.8489  MISS %:    32.1511   MPKI: 82.6716
L1D LOAD      ACCESS:   19614544  HIT:   11368533  MISS:    8246011  HIT %:    57.9597  MISS %:    42.0403   MPKI: 82.4601
L1D RFO       ACCESS:    6098932  HIT:    6077779  MISS:      21153  HIT %:    99.6532  MISS %:   0.346831   MPKI: 0.21153
L1D PREFETCH  REQUESTED:          0  ISSUED:          0  USEFUL:          0  USELESS:          0
L1D USEFUL LOAD PREFETCHES:          0 PREFETCH ISSUED TO LOWER LEVEL:          0  ACCURACY: -nan
L1D TIMELY PREFETCHES:          0 LATE PREFETCHES: 0 DROPPED PREFETCHES: 0
L1D PREFETCHES SAME FILL-ORIGIN LEVEL: 0 DIFFERENT FILL-ORIGIN LEVEL: 0
L1D AVERAGE MISS LATENCY: 160.737 cycles
L1D RQ	ACCESS:   28017192	FORWARD:          0	MERGED:    7762126	TO_CACHE:   20138815
L1D WQ	ACCESS:    6899176	FORWARD:     116251	MERGED:     769014	TO_CACHE:    6130162

L1D UNIQUE REGIONS ACCESSED: 0
L1D REGIONS CONFLICTS: 0
L1D Cross Page Prefetch Requests: 0
L1D Same Page Prefetch Requests: 0
L1D ROI Sum of L1D PQ occupancy: 0
L1D PREFETCHES PUSHED FROM L2C: 0
L1I TOTAL     ACCESS:   11952843  HIT:   11952843  MISS:          0  HIT %:        100  MISS %:          0   MPKI: 0
L1I LOAD      ACCESS:   11952843  HIT:   11952843  MISS:          0  HIT %:        100  MISS %:          0   MPKI: 0
L1I PREFETCH  REQUESTED:          0  ISSUED:          0  USEFUL:          0  USELESS:          0
L1I USEFUL LOAD PREFETCHES:          0 PREFETCH ISSUED TO LOWER LEVEL:          0  ACCURACY: -nan
L1I TIMELY PREFETCHES:          0 LATE PREFETCHES: 0 DROPPED PREFETCHES: 0
L1I PREFETCHES SAME FILL-ORIGIN LEVEL: 0 DIFFERENT FILL-ORIGIN LEVEL: 0
L1I AVERAGE MISS LATENCY: -nan cycles
L1I RQ	ACCESS:   21293151	FORWARD:          0	MERGED:    9340308	TO_CACHE:   11952843

BTB TOTAL     ACCESS:   15463578  HIT:   15463536  MISS:         42  HIT %:    99.9997  MISS %: 0.000271606   MPKI: 0.00042
BTB BRANCH_DIRECT_JUMP	ACCESS:     171252  HIT:     171240  MISS:         12
BTB BRANCH_INDIRECT	ACCESS:          0  HIT:          0  MISS:          0
BTB BRANCH_CONDITIONAL	ACCESS:   15292294  HIT:   15292279  MISS:         15
BTB BRANCH_DIRECT_CALL	ACCESS:         16  HIT:          9  MISS:          7
BTB BRANCH_INDIRECT_CALL	ACCESS:          0  HIT:          0  MISS:          0
BTB BRANCH_RETURN	ACCESS:         16  HIT:          8  MISS:          8
BTB BRANCH_OTHER ACCESS:          0  HIT:          0  MISS:          0

L2C TOTAL     ACCESS:   13180037  HIT:    5686722  MISS:    7493315  HIT %:    43.1465  MISS %:    56.8535   MPKI: 74.9331
L2C LOAD      ACCESS:    8246010  HIT:     865548  MISS:    7380462  HIT %:    10.4966  MISS %:    89.5034   MPKI: 73.8046
L2C DATA LOAD MPKI: 73.8046
L2C INSTRUCTION LOAD MPKI: 0
L2C RFO       ACCESS:      21153  HIT:        134  MISS:      21019  HIT %:    0.63348  MISS %:    99.3665   MPKI: 0.21019
L2C PREFETCH  ACCESS:     375911  HIT:     375911  MISS:          0  HIT %:        100  MISS %:          0   MPKI: 0
AGUS PREFETCH L1 MISS: 0
L2C DATA PREFETCH MPKI: 0
L2C INSTRUCTION PREFETCH MPKI: 0
L2C WRITEBACK ACCESS:    3296336  HIT:    3296298  MISS:         38  HIT %:    99.9988  MISS %:  0.0011528   MPKI: 0.00038
L2C LOAD TRANSLATION ACCESS:    1240627  HIT:    1148831  MISS:      91796  HIT %:    92.6008  MISS %:    7.39916   MPKI: 0.91796
L2C PREFETCH  REQUESTED:    6032976  ISSUED:    6032895  USEFUL:          0  USELESS:          0
L2C USEFUL LOAD PREFETCHES:          0 PREFETCH ISSUED TO LOWER LEVEL:    5484837  ACCURACY: 0
L2C TIMELY PREFETCHES:          0 LATE PREFETCHES: 0 DROPPED PREFETCHES: 0
L2C PREFETCHES SAME FILL-ORIGIN LEVEL: 0 DIFFERENT FILL-ORIGIN LEVEL: 5484837
L2C AVERAGE MISS LATENCY: 161.816 cycles
L2C RQ	ACCESS:    9507791	FORWARD:          0	MERGED:          0	TO_CACHE:    9507790
L2C WQ	ACCESS:    3296336	FORWARD:          3	MERGED:          0	TO_CACHE:    3296336
L2C PQ	ACCESS:    6032895	FORWARD:          0	MERGED:      59108	TO_CACHE:    5973785

L2C Instructions Evicting Data 0
L2C Translations Evicting Data 90044
L2C Data Evicting Data 7311271
L2C Instructions Evicting Instructions 0
L2C Translations Evicting Instructions 0
L2C Data Evicting Instructions 0
L2C Instructions Evicting Translations 0
L2C Translations Evicting Translations 1752
L2C Data Evicting Translations 90210
L2C Dense regions hint from L2: 0
PSCL5 TOTAL     ACCESS:    1240440  HIT:    1240440  MISS:          0  HIT %:        100  MISS %:          0   MPKI: 0
PSCL5 LOAD TRANSLATION ACCESS:    1240440  HIT:    1240440  MISS:          0  HIT %:        100  MISS %:          0   MPKI: 0
PSCL5 PREFETCH  REQUESTED:          0  ISSUED:          0  USEFUL:          0  USELESS:          0
PSCL5 USEFUL LOAD PREFETCHES:          0 PREFETCH ISSUED TO LOWER LEVEL:          0  ACCURACY: -nan
PSCL5 TIMELY PREFETCHES:          0 LATE PREFETCHES: 0 DROPPED PREFETCHES: 0
PSCL5 PREFETCHES SAME FILL-ORIGIN LEVEL: 0 DIFFERENT FILL-ORIGIN LEVEL: 0

PSCL4 TOTAL     ACCESS:    1240440  HIT:    1240440  MISS:          0  HIT %:        100  MISS %:          0   MPKI: 0
PSCL4 LOAD TRANSLATION ACCESS:    1240440  HIT:    1240440  MISS:          0  HIT %:        100  MISS %:          0   MPKI: 0
PSCL4 PREFETCH  REQUESTED:          0  ISSUED:          0  USEFUL:          0  USELESS:          0
PSCL4 USEFUL LOAD PREFETCHES:          0 PREFETCH ISSUED TO LOWER LEVEL:          0  ACCURACY: -nan
PSCL4 TIMELY PREFETCHES:          0 LATE PREFETCHES: 0 DROPPED PREFETCHES: 0
PSCL4 PREFETCHES SAME FILL-ORIGIN LEVEL: 0 DIFFERENT FILL-ORIGIN LEVEL: 0

PSCL3 TOTAL     ACCESS:    1240440  HIT:    1240440  MISS:          0  HIT %:        100  MISS %:          0   MPKI: 0
PSCL3 LOAD TRANSLATION ACCESS:    1240440  HIT:    1240440  MISS:          0  HIT %:        100  MISS %:          0   MPKI: 0
PSCL3 PREFETCH  REQUESTED:          0  ISSUED:          0  USEFUL:          0  USELESS:          0
PSCL3 USEFUL LOAD PREFETCHES:          0 PREFETCH ISSUED TO LOWER LEVEL:          0  ACCURACY: -nan
PSCL3 TIMELY PREFETCHES:          0 LATE PREFETCHES: 0 DROPPED PREFETCHES: 0
PSCL3 PREFETCHES SAME FILL-ORIGIN LEVEL: 0 DIFFERENT FILL-ORIGIN LEVEL: 0

PSCL2 TOTAL     ACCESS:    1240440  HIT:    1240215  MISS:        225  HIT %:    99.9819  MISS %:  0.0181387   MPKI: 0.00225
PSCL2 LOAD TRANSLATION ACCESS:    1240440  HIT:    1240215  MISS:        225  HIT %:    99.9819  MISS %:  0.0181387   MPKI: 0.00225
PSCL2 PREFETCH  REQUESTED:          0  ISSUED:          0  USEFUL:          0  USELESS:          0
PSCL2 USEFUL LOAD PREFETCHES:          0 PREFETCH ISSUED TO LOWER LEVEL:          0  ACCURACY: -nan
PSCL2 TIMELY PREFETCHES:          0 LATE PREFETCHES: 0 DROPPED PREFETCHES: 0
PSCL2 PREFETCHES SAME FILL-ORIGIN LEVEL: 0 DIFFERENT FILL-ORIGIN LEVEL: 0

LLC TOTAL     ACCESS:   15992786  HIT:    7947233  MISS:    8045553  HIT %:    49.6926  MISS %:    50.3074   MPKI: 80.4555
LLC LOAD      ACCESS:    7380445  HIT:    2534904  MISS:    4845541  HIT %:    34.3462  MISS %:    65.6538   MPKI: 48.4554
LLC RFO       ACCESS:      21019  HIT:        263  MISS:      20756  HIT %:    1.25125  MISS %:    98.7488   MPKI: 0.20756
LLC PREFETCH  ACCESS:    5388292  HIT:    2258768  MISS:    3129524  HIT %:    41.9199  MISS %:    58.0801   MPKI: 31.2952
AGUS PREFETCH L1 MISS: 0
LLC WRITEBACK ACCESS:    3111234  HIT:    3098254  MISS:      12980  HIT %:    99.5828  MISS %:   0.417198   MPKI: 0.1298
LLC LOAD TRANSLATION ACCESS:      91796  HIT:      55044  MISS:      36752  HIT %:    59.9634  MISS %:    40.0366   MPKI: 0.36752
LLC PREFETCH  REQUESTED:          0  ISSUED:          0  USEFUL:     752886  USELESS:    2380709
LLC USEFUL LOAD PREFETCHES:     752886 PREFETCH ISSUED TO LOWER LEVEL:    3189372  ACCURACY: 23.6061
LLC TIMELY PREFETCHES:     752886 LATE PREFETCHES: 59849 DROPPED PREFETCHES: 0
LLC PREFETCHES SAME FILL-ORIGIN LEVEL: 3189372 DIFFERENT FILL-ORIGIN LEVEL: 0
LLC AVERAGE MISS LATENCY: 211.723 cycles
LLC RQ	ACCESS:    7493277	FORWARD:          0	MERGED:          0	TO_CACHE:    7493260
LLC WQ	ACCESS:    3111234	FORWARD:         36	MERGED:          0	TO_CACHE:    3111234
LLC PQ	ACCESS:    5484837	FORWARD:          0	MERGED:      13675	TO_CACHE:    5471143

LLC Dense regions hint to LLC: 0

RAW hits: 2353678
Loads Generated: 30370870
Loads sent to L1D: 28017192
Stores Generated: 6899168
Stores sent to L1D: 6899176
Major fault: 0 Minor fault: 17928
Allocated PAGES: 17928
Prefetcher final stats
Training Unit Size: 105
Addr table size: 588749 588749


Triggers: 10756035
No Prediction: 1496045 13.9089
Stream end: 6060297
No translation: 1869559941 17381.5
Predictions: 8846257 82.2446


Stream divergence: 2525324 23.4782
Stream divergence -- new stream: 0

DRAM Statistics
 CHANNEL 0
 RQ ROW_BUFFER_HIT:    1902585  ROW_BUFFER_MISS:    6128043
 DBUS_CONGESTED:       2051
 WQ ROW_BUFFER_HIT:    1100765  ROW_BUFFER_MISS:    1441831  FULL:          0

 AVG_CONGESTED_CYCLE: 5
 All warmup complete: 2
Channel 0 Bank busy for read cycles: 0
Channel 0 Bank busy for write cycles: 0
Channel 0
Rank 0
0banks busy for read cycles: 6356093
0banks busy for write cycles: 23925
1banks busy for read cycles: 93126876
1banks busy for write cycles: 6150455
2banks busy for read cycles: 67899306
2banks busy for write cycles: 5231503
3banks busy for read cycles: 54807806
3banks busy for write cycles: 4611546
4banks busy for read cycles: 43224139
4banks busy for write cycles: 4676625
5banks busy for read cycles: 33168141
5banks busy for write cycles: 5816144
6banks busy for read cycles: 23832198
6banks busy for write cycles: 9002290
7banks busy for read cycles: 14361015
7banks busy for write cycles: 21435779
8banks busy for read cycles: 5458953
8banks busy for write cycles: 57158365

CPU 0 Branch Prediction Accuracy: 95.1173% MPKI: 7.5548 Average ROB Occupancy at Mispredict: 93.9912
Branch types
NOT_BRANCH: 84527442 84.5274%
BRANCH_DIRECT_JUMP: 171252 0.171252%
BRANCH_INDIRECT: 0 0%
BRANCH_CONDITIONAL: 15301250 15.3012%
BRANCH_DIRECT_CALL: 16 1.6e-05%
BRANCH_INDIRECT_CALL: 0 0%
BRANCH_RETURN: 16 1.6e-05%
BRANCH_OTHER: 0 0%

DRAM PAGES: 1048576
Allocated PAGES: 17928
