
*** ChampSim Multicore Out-of-Order Simulator ***

Warmup Instructions: 50000000
Simulation Instructions: 100000000
Number of CPUs: 1
LLC sets: 2048
LLC ways: 16
Off-chip DRAM Size: 4096 MB Channels: 1 Width: 64-bit Data Rate: 6400 MT/s
CPU 0 runs ./traces/GAP/bfs-8.trace.gz
.gz
CPU 0 Bimodal branch predictor
BTB has LRU replacement policy
ITLB has LRU replacement policy
DTLB has LRU replacement policy
STLB has LRU replacement policy
L1I has LRU replacement policy
L1D has LRU replacement policy
L2C has LRU replacement policy
LLC has LRU replacement policy
Heartbeat CPU 0 instructions: 10000002 cycles: 2954010 heartbeat IPC: 3.38523 cumulative IPC: 3.38523 (Simulation time: 0 hr 0 min 17 sec) 
Heartbeat CPU 0 instructions: 20000000 cycles: 6063089 heartbeat IPC: 3.21639 cumulative IPC: 3.29865 (Simulation time: 0 hr 0 min 44 sec) 
Heartbeat CPU 0 instructions: 30000002 cycles: 9196323 heartbeat IPC: 3.19159 cumulative IPC: 3.26217 (Simulation time: 0 hr 1 min 12 sec) 
Heartbeat CPU 0 instructions: 40000000 cycles: 12430738 heartbeat IPC: 3.09175 cumulative IPC: 3.21783 (Simulation time: 0 hr 1 min 37 sec) 
Heartbeat CPU 0 instructions: 50000002 cycles: 15701407 heartbeat IPC: 3.05748 cumulative IPC: 3.18443 (Simulation time: 0 hr 1 min 53 sec) 

Warmup complete CPU 0 instructions: 50000002 cycles: 15701407 (Simulation time: 0 hr 1 min 53 sec) 

Heartbeat CPU 0 instructions: 60000000 cycles: 36702824 heartbeat IPC: 0.476158 cumulative IPC: 0.476158 (Simulation time: 0 hr 2 min 28 sec) 
Heartbeat CPU 0 instructions: 70000001 cycles: 64397834 heartbeat IPC: 0.361076 cumulative IPC: 0.410708 (Simulation time: 0 hr 3 min 4 sec) 
Heartbeat CPU 0 instructions: 80000000 cycles: 112316617 heartbeat IPC: 0.208686 cumulative IPC: 0.31051 (Simulation time: 0 hr 3 min 46 sec) 
Heartbeat CPU 0 instructions: 90000000 cycles: 171628455 heartbeat IPC: 0.1686 cumulative IPC: 0.25653 (Simulation time: 0 hr 4 min 28 sec) 
Heartbeat CPU 0 instructions: 100000000 cycles: 230990024 heartbeat IPC: 0.168459 cumulative IPC: 0.232246 (Simulation time: 0 hr 5 min 10 sec) 
Heartbeat CPU 0 instructions: 110000001 cycles: 299217035 heartbeat IPC: 0.14657 cumulative IPC: 0.211629 (Simulation time: 0 hr 5 min 53 sec) 
Heartbeat CPU 0 instructions: 120000000 cycles: 355514616 heartbeat IPC: 0.177628 cumulative IPC: 0.205996 (Simulation time: 0 hr 6 min 31 sec) 
Heartbeat CPU 0 instructions: 130000001 cycles: 372509054 heartbeat IPC: 0.588428 cumulative IPC: 0.22421 (Simulation time: 0 hr 7 min 0 sec) 
Heartbeat CPU 0 instructions: 140000000 cycles: 389080339 heartbeat IPC: 0.603453 cumulative IPC: 0.241042 (Simulation time: 0 hr 7 min 34 sec) 
Heartbeat CPU 0 instructions: 150000002 cycles: 432737081 heartbeat IPC: 0.22906 cumulative IPC: 0.239788 (Simulation time: 0 hr 8 min 11 sec) 
Finished CPU 0 instructions: 100000000 cycles: 417035674 cumulative IPC: 0.239788 (Simulation time: 0 hr 8 min 11 sec) 

ChampSim completed all CPUs

Region of Interest Statistics

CPU 0 cumulative IPC: 0.239788 instructions: 100000000 cycles: 417035674
ITLB TOTAL     ACCESS:   16756060  HIT:   16756060  MISS:          0  HIT %:        100  MISS %:          0   MPKI: 0
ITLB LOAD TRANSLATION ACCESS:   16756060  HIT:   16756060  MISS:          0  HIT %:        100  MISS %:          0   MPKI: 0
ITLB PREFETCH  REQUESTED:          0  ISSUED:          0  USEFUL:          0  USELESS:          0
ITLB USEFUL LOAD PREFETCHES:          0 PREFETCH ISSUED TO LOWER LEVEL:          0  ACCURACY: -nan
ITLB TIMELY PREFETCHES:          0 LATE PREFETCHES: 0 DROPPED PREFETCHES: 0
ITLB PREFETCHES SAME FILL-ORIGIN LEVEL: 0 DIFFERENT FILL-ORIGIN LEVEL: 0
ITLB AVERAGE MISS LATENCY: -nan cycles
ITLB RQ	ACCESS:   21448829	FORWARD:          0	MERGED:    4692770	TO_CACHE:   16756059

DTLB TOTAL     ACCESS:   17911346  HIT:   17763632  MISS:     147714  HIT %:    99.1753  MISS %:   0.824695   MPKI: 1.47714
DTLB LOAD TRANSLATION ACCESS:   17911346  HIT:   17763632  MISS:     147714  HIT %:    99.1753  MISS %:   0.824695   MPKI: 1.47714
DTLB PREFETCH  REQUESTED:          0  ISSUED:          0  USEFUL:          0  USELESS:          0
DTLB USEFUL LOAD PREFETCHES:          0 PREFETCH ISSUED TO LOWER LEVEL:          0  ACCURACY: -nan
DTLB TIMELY PREFETCHES:          0 LATE PREFETCHES: 0 DROPPED PREFETCHES: 0
DTLB PREFETCHES SAME FILL-ORIGIN LEVEL: 0 DIFFERENT FILL-ORIGIN LEVEL: 0
DTLB AVERAGE MISS LATENCY: 47.3262 cycles
DTLB RQ	ACCESS:   19046707	FORWARD:          0	MERGED:    1125781	TO_CACHE:   17920926

STLB TOTAL     ACCESS:     147714  HIT:      56845  MISS:      90869  HIT %:    38.4831  MISS %:    61.5169   MPKI: 0.90869
STLB LOAD TRANSLATION ACCESS:     147714  HIT:      56845  MISS:      90869  HIT %:    38.4831  MISS %:    61.5169   MPKI: 0.90869
STLB PREFETCH  REQUESTED:          0  ISSUED:          0  USEFUL:          0  USELESS:          0
STLB USEFUL LOAD PREFETCHES:          0 PREFETCH ISSUED TO LOWER LEVEL:          0  ACCURACY: -nan
STLB TIMELY PREFETCHES:          0 LATE PREFETCHES: 0 DROPPED PREFETCHES: 0
STLB PREFETCHES SAME FILL-ORIGIN LEVEL: 0 DIFFERENT FILL-ORIGIN LEVEL: 0
STLB AVERAGE MISS LATENCY: 62.2645 cycles
STLB RQ	ACCESS:     147714	FORWARD:          0	MERGED:          0	TO_CACHE:     147714

STLB Hit, L1D data hit: 0
STLB Hit, L2C data hit: 0
STLB Hit, LLC data hit: 0
STLB Hit, LLC data miss: 0
STLB STLB hints to L2: 0
L1D TOTAL     ACCESS:   18198873  HIT:   15937822  MISS:    2261051  HIT %:    87.5759  MISS %:    12.4241   MPKI: 22.6105
L1D LOAD      ACCESS:   14752256  HIT:   12647956  MISS:    2104300  HIT %:    85.7357  MISS %:    14.2643   MPKI: 21.043
L1D RFO       ACCESS:    3446617  HIT:    3289866  MISS:     156751  HIT %:     95.452  MISS %:    4.54797   MPKI: 1.56751
L1D PREFETCH  REQUESTED:          0  ISSUED:          0  USEFUL:          0  USELESS:          0
L1D USEFUL LOAD PREFETCHES:          0 PREFETCH ISSUED TO LOWER LEVEL:          0  ACCURACY: -nan
L1D TIMELY PREFETCHES:          0 LATE PREFETCHES: 0 DROPPED PREFETCHES: 0
L1D PREFETCHES SAME FILL-ORIGIN LEVEL: 0 DIFFERENT FILL-ORIGIN LEVEL: 0
L1D AVERAGE MISS LATENCY: 128.465 cycles
L1D RQ	ACCESS:   23412769	FORWARD:          0	MERGED:    7975173	TO_CACHE:   15433675
L1D WQ	ACCESS:    3674122	FORWARD:       3921	MERGED:      61090	TO_CACHE:    3613032

L1D UNIQUE REGIONS ACCESSED: 0
L1D REGIONS CONFLICTS: 0
L1D Cross Page Prefetch Requests: 0
L1D Same Page Prefetch Requests: 0
L1D ROI Sum of L1D PQ occupancy: 0
L1D PREFETCHES PUSHED FROM L2C: 0
L1I TOTAL     ACCESS:   21448827  HIT:   21448814  MISS:         13  HIT %:    99.9999  MISS %: 6.06094e-05   MPKI: 0.00013
L1I LOAD      ACCESS:   21448827  HIT:   21448814  MISS:         13  HIT %:    99.9999  MISS %: 6.06094e-05   MPKI: 0.00013
L1I PREFETCH  REQUESTED:          0  ISSUED:          0  USEFUL:          0  USELESS:          0
L1I USEFUL LOAD PREFETCHES:          0 PREFETCH ISSUED TO LOWER LEVEL:          0  ACCURACY: -nan
L1I TIMELY PREFETCHES:          0 LATE PREFETCHES: 0 DROPPED PREFETCHES: 0
L1I PREFETCHES SAME FILL-ORIGIN LEVEL: 0 DIFFERENT FILL-ORIGIN LEVEL: 0
L1I AVERAGE MISS LATENCY: 189.923 cycles
L1I RQ	ACCESS:   33904993	FORWARD:          0	MERGED:   12456164	TO_CACHE:   21448829

BTB TOTAL     ACCESS:   19816992  HIT:   19816688  MISS:        304  HIT %:    99.9985  MISS %: 0.00153404   MPKI: 0.00304
BTB BRANCH_DIRECT_JUMP	ACCESS:      38942  HIT:      38896  MISS:         46
BTB BRANCH_INDIRECT	ACCESS:          2  HIT:          1  MISS:          1
BTB BRANCH_CONDITIONAL	ACCESS:   19777627  HIT:   19777524  MISS:        103
BTB BRANCH_DIRECT_CALL	ACCESS:        204  HIT:        160  MISS:         44
BTB BRANCH_INDIRECT_CALL	ACCESS:          6  HIT:          3  MISS:          3
BTB BRANCH_RETURN	ACCESS:        211  HIT:        104  MISS:        107
BTB BRANCH_OTHER ACCESS:          0  HIT:          0  MISS:          0

L2C TOTAL     ACCESS:    2672053  HIT:     919471  MISS:    1752582  HIT %:    34.4107  MISS %:    65.5893   MPKI: 17.5258
L2C LOAD      ACCESS:    2104313  HIT:     519549  MISS:    1584764  HIT %:    24.6897  MISS %:    75.3103   MPKI: 15.8476
L2C DATA LOAD MPKI: 15.8475
L2C INSTRUCTION LOAD MPKI: 0.00013
L2C RFO       ACCESS:     156751  HIT:       4880  MISS:     151871  HIT %:    3.11322  MISS %:    96.8868   MPKI: 1.51871
L2C WRITEBACK ACCESS:     319613  HIT:     319607  MISS:          6  HIT %:    99.9981  MISS %: 0.00187727   MPKI: 6e-05
L2C LOAD TRANSLATION ACCESS:      91376  HIT:      75435  MISS:      15941  HIT %:    82.5545  MISS %:    17.4455   MPKI: 0.15941
L2C PREFETCH  REQUESTED:          0  ISSUED:          0  USEFUL:          0  USELESS:          0
L2C USEFUL LOAD PREFETCHES:          0 PREFETCH ISSUED TO LOWER LEVEL:          0  ACCURACY: -nan
L2C TIMELY PREFETCHES:          0 LATE PREFETCHES: 0 DROPPED PREFETCHES: 0
L2C PREFETCHES SAME FILL-ORIGIN LEVEL: 0 DIFFERENT FILL-ORIGIN LEVEL: 0
L2C AVERAGE MISS LATENCY: 148.163 cycles
L2C RQ	ACCESS:    2352441	FORWARD:          0	MERGED:          0	TO_CACHE:    2352441
L2C WQ	ACCESS:     319613	FORWARD:          0	MERGED:          0	TO_CACHE:     319613

L2C Instructions Evicting Data 13
L2C Translations Evicting Data 15730
L2C Data Evicting Data 1720814
L2C Instructions Evicting Instructions 0
L2C Translations Evicting Instructions 1
L2C Data Evicting Instructions 15
L2C Instructions Evicting Translations 0
L2C Translations Evicting Translations 210
L2C Data Evicting Translations 15793
L2C Dense regions hint from L2: 0
PSCL5 TOTAL     ACCESS:      90869  HIT:      90869  MISS:          0  HIT %:        100  MISS %:          0   MPKI: 0
PSCL5 LOAD TRANSLATION ACCESS:      90869  HIT:      90869  MISS:          0  HIT %:        100  MISS %:          0   MPKI: 0
PSCL5 PREFETCH  REQUESTED:          0  ISSUED:          0  USEFUL:          0  USELESS:          0
PSCL5 USEFUL LOAD PREFETCHES:          0 PREFETCH ISSUED TO LOWER LEVEL:          0  ACCURACY: -nan
PSCL5 TIMELY PREFETCHES:          0 LATE PREFETCHES: 0 DROPPED PREFETCHES: 0
PSCL5 PREFETCHES SAME FILL-ORIGIN LEVEL: 0 DIFFERENT FILL-ORIGIN LEVEL: 0

PSCL4 TOTAL     ACCESS:      90869  HIT:      90869  MISS:          0  HIT %:        100  MISS %:          0   MPKI: 0
PSCL4 LOAD TRANSLATION ACCESS:      90869  HIT:      90869  MISS:          0  HIT %:        100  MISS %:          0   MPKI: 0
PSCL4 PREFETCH  REQUESTED:          0  ISSUED:          0  USEFUL:          0  USELESS:          0
PSCL4 USEFUL LOAD PREFETCHES:          0 PREFETCH ISSUED TO LOWER LEVEL:          0  ACCURACY: -nan
PSCL4 TIMELY PREFETCHES:          0 LATE PREFETCHES: 0 DROPPED PREFETCHES: 0
PSCL4 PREFETCHES SAME FILL-ORIGIN LEVEL: 0 DIFFERENT FILL-ORIGIN LEVEL: 0

PSCL3 TOTAL     ACCESS:      90869  HIT:      90869  MISS:          0  HIT %:        100  MISS %:          0   MPKI: 0
PSCL3 LOAD TRANSLATION ACCESS:      90869  HIT:      90869  MISS:          0  HIT %:        100  MISS %:          0   MPKI: 0
PSCL3 PREFETCH  REQUESTED:          0  ISSUED:          0  USEFUL:          0  USELESS:          0
PSCL3 USEFUL LOAD PREFETCHES:          0 PREFETCH ISSUED TO LOWER LEVEL:          0  ACCURACY: -nan
PSCL3 TIMELY PREFETCHES:          0 LATE PREFETCHES: 0 DROPPED PREFETCHES: 0
PSCL3 PREFETCHES SAME FILL-ORIGIN LEVEL: 0 DIFFERENT FILL-ORIGIN LEVEL: 0

PSCL2 TOTAL     ACCESS:      90869  HIT:      90362  MISS:        507  HIT %:    99.4421  MISS %:   0.557946   MPKI: 0.00507
PSCL2 LOAD TRANSLATION ACCESS:      90869  HIT:      90362  MISS:        507  HIT %:    99.4421  MISS %:   0.557946   MPKI: 0.00507
PSCL2 PREFETCH  REQUESTED:          0  ISSUED:          0  USEFUL:          0  USELESS:          0
PSCL2 USEFUL LOAD PREFETCHES:          0 PREFETCH ISSUED TO LOWER LEVEL:          0  ACCURACY: -nan
PSCL2 TIMELY PREFETCHES:          0 LATE PREFETCHES: 0 DROPPED PREFETCHES: 0
PSCL2 PREFETCHES SAME FILL-ORIGIN LEVEL: 0 DIFFERENT FILL-ORIGIN LEVEL: 0

LLC TOTAL     ACCESS:    2061092  HIT:     381311  MISS:    1679781  HIT %:    18.5004  MISS %:    81.4996   MPKI: 16.7978
LLC LOAD      ACCESS:    1584764  HIT:      69924  MISS:    1514840  HIT %:    4.41227  MISS %:    95.5877   MPKI: 15.1484
LLC RFO       ACCESS:     151871  HIT:       4066  MISS:     147805  HIT %:    2.67727  MISS %:    97.3227   MPKI: 1.47805
LLC WRITEBACK ACCESS:     308516  HIT:     306853  MISS:       1663  HIT %:     99.461  MISS %:   0.539032   MPKI: 0.01663
LLC LOAD TRANSLATION ACCESS:      15941  HIT:        468  MISS:      15473  HIT %:    2.93583  MISS %:    97.0642   MPKI: 0.15473
LLC PREFETCH  REQUESTED:          0  ISSUED:          0  USEFUL:          0  USELESS:          0
LLC USEFUL LOAD PREFETCHES:          0 PREFETCH ISSUED TO LOWER LEVEL:          0  ACCURACY: -nan
LLC TIMELY PREFETCHES:          0 LATE PREFETCHES: 0 DROPPED PREFETCHES: 0
LLC PREFETCHES SAME FILL-ORIGIN LEVEL: 0 DIFFERENT FILL-ORIGIN LEVEL: 0
LLC AVERAGE MISS LATENCY: 123.275 cycles
LLC RQ	ACCESS:    1752576	FORWARD:          0	MERGED:          0	TO_CACHE:    1752576
LLC WQ	ACCESS:     308516	FORWARD:          0	MERGED:          0	TO_CACHE:     308516

LLC Dense regions hint to LLC: 0

RAW hits: 74279
Loads Generated: 23487048
Loads sent to L1D: 23412769
Stores Generated: 3674122
Stores sent to L1D: 3674122
Major fault: 0 Minor fault: 27118
Allocated PAGES: 27118

DRAM Statistics
 CHANNEL 0
 RQ ROW_BUFFER_HIT:     854432  ROW_BUFFER_MISS:     823679
 DBUS_CONGESTED:        108
 WQ ROW_BUFFER_HIT:      64611  ROW_BUFFER_MISS:     224958  FULL:          0

 AVG_CONGESTED_CYCLE: 4
 All warmup complete: 2
Channel 0 Bank busy for read cycles: 0
Channel 0 Bank busy for write cycles: 0
Channel 0
Rank 0
0banks busy for read cycles: 238389893
0banks busy for write cycles: 222992
1banks busy for read cycles: 113019591
1banks busy for write cycles: 36588284
2banks busy for read cycles: 19715352
2banks busy for write cycles: 3706058
3banks busy for read cycles: 2408702
3banks busy for write cycles: 522685
4banks busy for read cycles: 907057
4banks busy for write cycles: 209378
5banks busy for read cycles: 301115
5banks busy for write cycles: 149249
6banks busy for read cycles: 76342
6banks busy for write cycles: 130888
7banks busy for read cycles: 32873
7banks busy for write cycles: 181712
8banks busy for read cycles: 98532
8banks busy for write cycles: 374972

CPU 0 Branch Prediction Accuracy: 86.1281% MPKI: 30.6762 Average ROB Occupancy at Mispredict: 7.88736
Branch types
NOT_BRANCH: 77886091 77.8861%
BRANCH_DIRECT_JUMP: 38942 0.038942%
BRANCH_INDIRECT: 2 2e-06%
BRANCH_CONDITIONAL: 22074556 22.0746%
BRANCH_DIRECT_CALL: 204 0.000204%
BRANCH_INDIRECT_CALL: 6 6e-06%
BRANCH_RETURN: 211 0.000211%
BRANCH_OTHER: 0 0%

DRAM PAGES: 1048576
Allocated PAGES: 27118
