
*** ChampSim Multicore Out-of-Order Simulator ***

Warmup Instructions: 50000000
Simulation Instructions: 100000000
Number of CPUs: 1
LLC sets: 2048
LLC ways: 16
Off-chip DRAM Size: 4096 MB Channels: 1 Width: 64-bit Data Rate: 6400 MT/s
CPU 0 runs ./traces/GAP/bfs-14.trace.gz
.gz
CPU 0 Bimodal branch predictor
BTB has LRU replacement policy
ITLB has LRU replacement policy
DTLB has LRU replacement policy
STLB has LRU replacement policy
L1I has LRU replacement policy
L1D has LRU replacement policy
Ideal ISB Prefetching
L2C has LRU replacement policy
LLC has LRU replacement policy
Heartbeat CPU 0 instructions: 10000003 cycles: 2954747 heartbeat IPC: 3.38439 cumulative IPC: 3.38439 (Simulation time: 0 hr 0 min 18 sec) 
Heartbeat CPU 0 instructions: 20000000 cycles: 6033508 heartbeat IPC: 3.24806 cumulative IPC: 3.31482 (Simulation time: 0 hr 0 min 47 sec) 
Heartbeat CPU 0 instructions: 30000000 cycles: 9106604 heartbeat IPC: 3.25405 cumulative IPC: 3.29431 (Simulation time: 0 hr 1 min 17 sec) 
Heartbeat CPU 0 instructions: 40000000 cycles: 12218697 heartbeat IPC: 3.21327 cumulative IPC: 3.27367 (Simulation time: 0 hr 1 min 46 sec) 
Heartbeat CPU 0 instructions: 50000002 cycles: 15479384 heartbeat IPC: 3.06684 cumulative IPC: 3.2301 (Simulation time: 0 hr 2 min 13 sec) 

Warmup complete CPU 0 instructions: 50000002 cycles: 15479384 (Simulation time: 0 hr 2 min 13 sec) 

Heartbeat CPU 0 instructions: 60000000 cycles: 50788840 heartbeat IPC: 0.28321 cumulative IPC: 0.28321 (Simulation time: 0 hr 2 min 52 sec) 
Heartbeat CPU 0 instructions: 70000001 cycles: 61171596 heartbeat IPC: 0.963135 cumulative IPC: 0.437711 (Simulation time: 0 hr 3 min 20 sec) 
Heartbeat CPU 0 instructions: 80000000 cycles: 79918757 heartbeat IPC: 0.533414 cumulative IPC: 0.465554 (Simulation time: 0 hr 3 min 58 sec) 
Heartbeat CPU 0 instructions: 90000000 cycles: 111456978 heartbeat IPC: 0.317076 cumulative IPC: 0.416764 (Simulation time: 0 hr 4 min 41 sec) 
Heartbeat CPU 0 instructions: 100000000 cycles: 150547636 heartbeat IPC: 0.255816 cumulative IPC: 0.370183 (Simulation time: 0 hr 5 min 24 sec) 
Heartbeat CPU 0 instructions: 110000002 cycles: 189630814 heartbeat IPC: 0.255865 cumulative IPC: 0.344528 (Simulation time: 0 hr 6 min 7 sec) 
Heartbeat CPU 0 instructions: 120000000 cycles: 236220614 heartbeat IPC: 0.214639 cumulative IPC: 0.317113 (Simulation time: 0 hr 6 min 54 sec) 
Heartbeat CPU 0 instructions: 130000001 cycles: 277863690 heartbeat IPC: 0.240136 cumulative IPC: 0.304896 (Simulation time: 0 hr 7 min 38 sec) 
Heartbeat CPU 0 instructions: 140000000 cycles: 296217933 heartbeat IPC: 0.544833 cumulative IPC: 0.320583 (Simulation time: 0 hr 8 min 10 sec) 
Heartbeat CPU 0 instructions: 150000001 cycles: 307930187 heartbeat IPC: 0.853807 cumulative IPC: 0.341938 (Simulation time: 0 hr 8 min 45 sec) 
Finished CPU 0 instructions: 100000001 cycles: 292450811 cumulative IPC: 0.341938 (Simulation time: 0 hr 8 min 45 sec) 

ChampSim completed all CPUs

Region of Interest Statistics

CPU 0 cumulative IPC: 0.341938 instructions: 100000001 cycles: 292450811
ITLB TOTAL     ACCESS:   16830026  HIT:   16830026  MISS:          0  HIT %:        100  MISS %:          0   MPKI: 0
ITLB LOAD TRANSLATION ACCESS:   16830026  HIT:   16830026  MISS:          0  HIT %:        100  MISS %:          0   MPKI: 0
ITLB PREFETCH  REQUESTED:          0  ISSUED:          0  USEFUL:          0  USELESS:          0
ITLB USEFUL LOAD PREFETCHES:          0 PREFETCH ISSUED TO LOWER LEVEL:          0  ACCURACY: -nan
ITLB TIMELY PREFETCHES:          0 LATE PREFETCHES: 0 DROPPED PREFETCHES: 0
ITLB PREFETCHES SAME FILL-ORIGIN LEVEL: 0 DIFFERENT FILL-ORIGIN LEVEL: 0
ITLB AVERAGE MISS LATENCY: -nan cycles
ITLB RQ	ACCESS:   21140312	FORWARD:          0	MERGED:    4310287	TO_CACHE:   16830025

DTLB TOTAL     ACCESS:   18195118  HIT:   18119434  MISS:      75684  HIT %:     99.584  MISS %:   0.415958   MPKI: 0.75684
DTLB LOAD TRANSLATION ACCESS:   18195118  HIT:   18119434  MISS:      75684  HIT %:     99.584  MISS %:   0.415958   MPKI: 0.75684
DTLB PREFETCH  REQUESTED:          0  ISSUED:          0  USEFUL:          0  USELESS:          0
DTLB USEFUL LOAD PREFETCHES:          0 PREFETCH ISSUED TO LOWER LEVEL:          0  ACCURACY: -nan
DTLB TIMELY PREFETCHES:          0 LATE PREFETCHES: 0 DROPPED PREFETCHES: 0
DTLB PREFETCHES SAME FILL-ORIGIN LEVEL: 0 DIFFERENT FILL-ORIGIN LEVEL: 0
DTLB AVERAGE MISS LATENCY: 64.4978 cycles
DTLB RQ	ACCESS:   19206708	FORWARD:          0	MERGED:    1007780	TO_CACHE:   18198928

STLB TOTAL     ACCESS:      75684  HIT:      10952  MISS:      64732  HIT %:    14.4707  MISS %:    85.5293   MPKI: 0.64732
STLB LOAD TRANSLATION ACCESS:      75684  HIT:      10952  MISS:      64732  HIT %:    14.4707  MISS %:    85.5293   MPKI: 0.64732
STLB PREFETCH  REQUESTED:          0  ISSUED:          0  USEFUL:          0  USELESS:          0
STLB USEFUL LOAD PREFETCHES:          0 PREFETCH ISSUED TO LOWER LEVEL:          0  ACCURACY: -nan
STLB TIMELY PREFETCHES:          0 LATE PREFETCHES: 0 DROPPED PREFETCHES: 0
STLB PREFETCHES SAME FILL-ORIGIN LEVEL: 0 DIFFERENT FILL-ORIGIN LEVEL: 0
STLB AVERAGE MISS LATENCY: 64.8854 cycles
STLB RQ	ACCESS:      75684	FORWARD:          0	MERGED:          0	TO_CACHE:      75684

STLB Hit, L1D data hit: 0
STLB Hit, L2C data hit: 0
STLB Hit, LLC data hit: 0
STLB Hit, LLC data miss: 0
STLB STLB hints to L2: 0
L1D TOTAL     ACCESS:   18125945  HIT:   16037394  MISS:    2088551  HIT %:    88.4776  MISS %:    11.5224   MPKI: 20.8855
L1D LOAD      ACCESS:   16023278  HIT:   14015912  MISS:    2007366  HIT %:    87.4722  MISS %:    12.5278   MPKI: 20.0737
L1D RFO       ACCESS:    2102667  HIT:    2021482  MISS:      81185  HIT %:     96.139  MISS %:    3.86105   MPKI: 0.81185
L1D PREFETCH  REQUESTED:          0  ISSUED:          0  USEFUL:          0  USELESS:          0
L1D USEFUL LOAD PREFETCHES:          0 PREFETCH ISSUED TO LOWER LEVEL:          0  ACCURACY: -nan
L1D TIMELY PREFETCHES:          0 LATE PREFETCHES: 0 DROPPED PREFETCHES: 0
L1D PREFETCHES SAME FILL-ORIGIN LEVEL: 0 DIFFERENT FILL-ORIGIN LEVEL: 0
L1D AVERAGE MISS LATENCY: 53.9043 cycles
L1D RQ	ACCESS:   23496828	FORWARD:          0	MERGED:    6722134	TO_CACHE:   16772354
L1D WQ	ACCESS:    2479659	FORWARD:       2340	MERGED:      45305	TO_CACHE:    2434354

L1D UNIQUE REGIONS ACCESSED: 0
L1D REGIONS CONFLICTS: 0
L1D Cross Page Prefetch Requests: 0
L1D Same Page Prefetch Requests: 0
L1D ROI Sum of L1D PQ occupancy: 0
L1D PREFETCHES PUSHED FROM L2C: 0
L1I TOTAL     ACCESS:   21140311  HIT:   21140296  MISS:         15  HIT %:    99.9999  MISS %: 7.09545e-05   MPKI: 0.00015
L1I LOAD      ACCESS:   21140311  HIT:   21140296  MISS:         15  HIT %:    99.9999  MISS %: 7.09545e-05   MPKI: 0.00015
L1I PREFETCH  REQUESTED:          0  ISSUED:          0  USEFUL:          0  USELESS:          0
L1I USEFUL LOAD PREFETCHES:          0 PREFETCH ISSUED TO LOWER LEVEL:          0  ACCURACY: -nan
L1I TIMELY PREFETCHES:          0 LATE PREFETCHES: 0 DROPPED PREFETCHES: 0
L1I PREFETCHES SAME FILL-ORIGIN LEVEL: 0 DIFFERENT FILL-ORIGIN LEVEL: 0
L1I AVERAGE MISS LATENCY: 230.933 cycles
L1I RQ	ACCESS:   34095755	FORWARD:          0	MERGED:   12955443	TO_CACHE:   21140312

BTB TOTAL     ACCESS:   20594662  HIT:   20594379  MISS:        283  HIT %:    99.9986  MISS %: 0.00137414   MPKI: 0.00283
BTB BRANCH_DIRECT_JUMP	ACCESS:       1207  HIT:       1162  MISS:         45
BTB BRANCH_INDIRECT	ACCESS:          2  HIT:          1  MISS:          1
BTB BRANCH_CONDITIONAL	ACCESS:   20593121  HIT:   20593018  MISS:        103
BTB BRANCH_DIRECT_CALL	ACCESS:        160  HIT:        117  MISS:         43
BTB BRANCH_INDIRECT_CALL	ACCESS:          6  HIT:          3  MISS:          3
BTB BRANCH_RETURN	ACCESS:        166  HIT:         78  MISS:         88
BTB BRANCH_OTHER ACCESS:          0  HIT:          0  MISS:          0

L2C TOTAL     ACCESS:    2421604  HIT:     824489  MISS:    1597115  HIT %:    34.0472  MISS %:    65.9528   MPKI: 15.9711
L2C LOAD      ACCESS:    2007381  HIT:     500826  MISS:    1506555  HIT %:    24.9492  MISS %:    75.0508   MPKI: 15.0655
L2C DATA LOAD MPKI: 15.0654
L2C INSTRUCTION LOAD MPKI: 0.00015
L2C RFO       ACCESS:      81185  HIT:       3305  MISS:      77880  HIT %:    4.07095  MISS %:    95.9291   MPKI: 0.7788
L2C PREFETCH  ACCESS:      41475  HIT:      41475  MISS:          0  HIT %:        100  MISS %:          0   MPKI: 0
AGUS PREFETCH L1 MISS: 0
L2C DATA PREFETCH MPKI: 0
L2C INSTRUCTION PREFETCH MPKI: 0
L2C WRITEBACK ACCESS:     226360  HIT:     226352  MISS:          8  HIT %:    99.9965  MISS %: 0.00353419   MPKI: 8e-05
L2C LOAD TRANSLATION ACCESS:      65203  HIT:      52531  MISS:      12672  HIT %:    80.5653  MISS %:    19.4347   MPKI: 0.12672
L2C PREFETCH  REQUESTED:    2697902  ISSUED:    2697902  USEFUL:          0  USELESS:          0
L2C USEFUL LOAD PREFETCHES:          0 PREFETCH ISSUED TO LOWER LEVEL:    2636731  ACCURACY: 0
L2C TIMELY PREFETCHES:          0 LATE PREFETCHES: 0 DROPPED PREFETCHES: 0
L2C PREFETCHES SAME FILL-ORIGIN LEVEL: 0 DIFFERENT FILL-ORIGIN LEVEL: 2636731
L2C AVERAGE MISS LATENCY: 52.4321 cycles
L2C RQ	ACCESS:    2153770	FORWARD:          0	MERGED:          0	TO_CACHE:    2153770
L2C WQ	ACCESS:     226360	FORWARD:          0	MERGED:          0	TO_CACHE:     226360
L2C PQ	ACCESS:    2697902	FORWARD:          0	MERGED:       8791	TO_CACHE:    2689111

L2C Instructions Evicting Data 15
L2C Translations Evicting Data 12585
L2C Data Evicting Data 1571803
L2C Instructions Evicting Instructions 0
L2C Translations Evicting Instructions 0
L2C Data Evicting Instructions 15
L2C Instructions Evicting Translations 0
L2C Translations Evicting Translations 87
L2C Data Evicting Translations 12602
L2C Dense regions hint from L2: 0
PSCL5 TOTAL     ACCESS:      64732  HIT:      64732  MISS:          0  HIT %:        100  MISS %:          0   MPKI: 0
PSCL5 LOAD TRANSLATION ACCESS:      64732  HIT:      64732  MISS:          0  HIT %:        100  MISS %:          0   MPKI: 0
PSCL5 PREFETCH  REQUESTED:          0  ISSUED:          0  USEFUL:          0  USELESS:          0
PSCL5 USEFUL LOAD PREFETCHES:          0 PREFETCH ISSUED TO LOWER LEVEL:          0  ACCURACY: -nan
PSCL5 TIMELY PREFETCHES:          0 LATE PREFETCHES: 0 DROPPED PREFETCHES: 0
PSCL5 PREFETCHES SAME FILL-ORIGIN LEVEL: 0 DIFFERENT FILL-ORIGIN LEVEL: 0

PSCL4 TOTAL     ACCESS:      64732  HIT:      64732  MISS:          0  HIT %:        100  MISS %:          0   MPKI: 0
PSCL4 LOAD TRANSLATION ACCESS:      64732  HIT:      64732  MISS:          0  HIT %:        100  MISS %:          0   MPKI: 0
PSCL4 PREFETCH  REQUESTED:          0  ISSUED:          0  USEFUL:          0  USELESS:          0
PSCL4 USEFUL LOAD PREFETCHES:          0 PREFETCH ISSUED TO LOWER LEVEL:          0  ACCURACY: -nan
PSCL4 TIMELY PREFETCHES:          0 LATE PREFETCHES: 0 DROPPED PREFETCHES: 0
PSCL4 PREFETCHES SAME FILL-ORIGIN LEVEL: 0 DIFFERENT FILL-ORIGIN LEVEL: 0

PSCL3 TOTAL     ACCESS:      64732  HIT:      64732  MISS:          0  HIT %:        100  MISS %:          0   MPKI: 0
PSCL3 LOAD TRANSLATION ACCESS:      64732  HIT:      64732  MISS:          0  HIT %:        100  MISS %:          0   MPKI: 0
PSCL3 PREFETCH  REQUESTED:          0  ISSUED:          0  USEFUL:          0  USELESS:          0
PSCL3 USEFUL LOAD PREFETCHES:          0 PREFETCH ISSUED TO LOWER LEVEL:          0  ACCURACY: -nan
PSCL3 TIMELY PREFETCHES:          0 LATE PREFETCHES: 0 DROPPED PREFETCHES: 0
PSCL3 PREFETCHES SAME FILL-ORIGIN LEVEL: 0 DIFFERENT FILL-ORIGIN LEVEL: 0

PSCL2 TOTAL     ACCESS:      64732  HIT:      64261  MISS:        471  HIT %:    99.2724  MISS %:   0.727615   MPKI: 0.00471
PSCL2 LOAD TRANSLATION ACCESS:      64732  HIT:      64261  MISS:        471  HIT %:    99.2724  MISS %:   0.727615   MPKI: 0.00471
PSCL2 PREFETCH  REQUESTED:          0  ISSUED:          0  USEFUL:          0  USELESS:          0
PSCL2 USEFUL LOAD PREFETCHES:          0 PREFETCH ISSUED TO LOWER LEVEL:          0  ACCURACY: -nan
PSCL2 TIMELY PREFETCHES:          0 LATE PREFETCHES: 0 DROPPED PREFETCHES: 0
PSCL2 PREFETCHES SAME FILL-ORIGIN LEVEL: 0 DIFFERENT FILL-ORIGIN LEVEL: 0

LLC TOTAL     ACCESS:    4365640  HIT:    2674562  MISS:    1691078  HIT %:    61.2639  MISS %:    38.7361   MPKI: 16.9108
LLC LOAD      ACCESS:    1506555  HIT:    1325108  MISS:     181447  HIT %:    87.9562  MISS %:    12.0438   MPKI: 1.81447
LLC RFO       ACCESS:      77881  HIT:       1113  MISS:      76768  HIT %:     1.4291  MISS %:    98.5709   MPKI: 0.76768
LLC PREFETCH  ACCESS:    2543691  HIT:    1125503  MISS:    1418188  HIT %:    44.2468  MISS %:    55.7532   MPKI: 14.1819
AGUS PREFETCH L1 MISS: 0
LLC WRITEBACK ACCESS:     224841  HIT:     222517  MISS:       2324  HIT %:    98.9664  MISS %:    1.03362   MPKI: 0.02324
LLC LOAD TRANSLATION ACCESS:      12672  HIT:        321  MISS:      12351  HIT %:    2.53314  MISS %:    97.4669   MPKI: 0.12351
LLC PREFETCH  REQUESTED:          0  ISSUED:          0  USEFUL:    1281641  USELESS:     143629
LLC USEFUL LOAD PREFETCHES:    1281641 PREFETCH ISSUED TO LOWER LEVEL:    1432553  ACCURACY: 89.4655
LLC TIMELY PREFETCHES:    1281641 LATE PREFETCHES: 14364 DROPPED PREFETCHES: 0
LLC PREFETCHES SAME FILL-ORIGIN LEVEL: 1432553 DIFFERENT FILL-ORIGIN LEVEL: 0
LLC AVERAGE MISS LATENCY: 123.846 cycles
LLC RQ	ACCESS:    1597108	FORWARD:          0	MERGED:          0	TO_CACHE:    1597108
LLC WQ	ACCESS:     224841	FORWARD:          0	MERGED:          0	TO_CACHE:     224841
LLC PQ	ACCESS:    2636731	FORWARD:          0	MERGED:       6742	TO_CACHE:    2629989

LLC Dense regions hint to LLC: 0

RAW hits: 61729
Loads Generated: 23558559
Loads sent to L1D: 23496828
Stores Generated: 2479660
Stores sent to L1D: 2479659
Major fault: 0 Minor fault: 27004
Allocated PAGES: 27004
Prefetcher final stats
Training Unit Size: 122
Addr table size: 514318 514320


Triggers: 2505868
No Prediction: 540293 21.5611
Stream end: 222272
No translation: 223304454 8911.26
Predictions: 3587920 143.181


Stream divergence: 98666 3.9374
Stream divergence -- new stream: 0

DRAM Statistics
 CHANNEL 0
 RQ ROW_BUFFER_HIT:     870148  ROW_BUFFER_MISS:     818595
 DBUS_CONGESTED:       1892
 WQ ROW_BUFFER_HIT:      83253  ROW_BUFFER_MISS:     142977  FULL:          0

 AVG_CONGESTED_CYCLE: 4
 All warmup complete: 2
Channel 0 Bank busy for read cycles: 0
Channel 0 Bank busy for write cycles: 0
Channel 0
Rank 0
0banks busy for read cycles: 142402225
0banks busy for write cycles: 109492
1banks busy for read cycles: 91324984
1banks busy for write cycles: 18824187
2banks busy for read cycles: 20247579
2banks busy for write cycles: 5117828
3banks busy for read cycles: 8065649
3banks busy for write cycles: 1638705
4banks busy for read cycles: 1239373
4banks busy for write cycles: 697569
5banks busy for read cycles: 294483
5banks busy for write cycles: 400032
6banks busy for read cycles: 208154
6banks busy for write cycles: 264870
7banks busy for read cycles: 168418
7banks busy for write cycles: 278327
8banks busy for read cycles: 184840
8banks busy for write cycles: 984097

CPU 0 Branch Prediction Accuracy: 86.6247% MPKI: 30.3439 Average ROB Occupancy at Mispredict: 7.20572
Branch types
NOT_BRANCH: 77313399 77.3134%
BRANCH_DIRECT_JUMP: 1207 0.001207%
BRANCH_INDIRECT: 2 2e-06%
BRANCH_CONDITIONAL: 22685058 22.6851%
BRANCH_DIRECT_CALL: 160 0.00016%
BRANCH_INDIRECT_CALL: 6 6e-06%
BRANCH_RETURN: 166 0.000166%
BRANCH_OTHER: 0 0%

DRAM PAGES: 1048576
Allocated PAGES: 27004
