
*** ChampSim Multicore Out-of-Order Simulator ***

Warmup Instructions: 50000000
Simulation Instructions: 100000000
Number of CPUs: 1
LLC sets: 2048
LLC ways: 16
Off-chip DRAM Size: 4096 MB Channels: 1 Width: 64-bit Data Rate: 6400 MT/s
CPU 0 runs ./traces/GAP/bfs-3.trace.gz
.gz
CPU 0 Bimodal branch predictor
BTB has LRU replacement policy
ITLB has LRU replacement policy
DTLB has LRU replacement policy
STLB has LRU replacement policy
L1I has LRU replacement policy
L1D has LRU replacement policy
Ideal ISB Prefetching
L2C has LRU replacement policy
LLC has LRU replacement policy
Heartbeat CPU 0 instructions: 10000002 cycles: 2954733 heartbeat IPC: 3.3844 cumulative IPC: 3.3844 (Simulation time: 0 hr 0 min 18 sec) 
Heartbeat CPU 0 instructions: 20000000 cycles: 5967488 heartbeat IPC: 3.31922 cumulative IPC: 3.35149 (Simulation time: 0 hr 0 min 38 sec) 
Heartbeat CPU 0 instructions: 30000003 cycles: 8969785 heartbeat IPC: 3.33078 cumulative IPC: 3.34456 (Simulation time: 0 hr 0 min 58 sec) 
Heartbeat CPU 0 instructions: 40000000 cycles: 11971632 heartbeat IPC: 3.33128 cumulative IPC: 3.34123 (Simulation time: 0 hr 1 min 18 sec) 
Heartbeat CPU 0 instructions: 50000000 cycles: 15021455 heartbeat IPC: 3.27888 cumulative IPC: 3.32857 (Simulation time: 0 hr 1 min 40 sec) 

Warmup complete CPU 0 instructions: 50000004 cycles: 15021456 (Simulation time: 0 hr 1 min 40 sec) 

Heartbeat CPU 0 instructions: 60000000 cycles: 61564876 heartbeat IPC: 0.214853 cumulative IPC: 0.214853 (Simulation time: 0 hr 2 min 24 sec) 
Heartbeat CPU 0 instructions: 70000002 cycles: 94552342 heartbeat IPC: 0.303145 cumulative IPC: 0.251475 (Simulation time: 0 hr 3 min 0 sec) 
Heartbeat CPU 0 instructions: 80000000 cycles: 105524308 heartbeat IPC: 0.911413 cumulative IPC: 0.331481 (Simulation time: 0 hr 3 min 29 sec) 
Heartbeat CPU 0 instructions: 90000000 cycles: 125414666 heartbeat IPC: 0.502756 cumulative IPC: 0.362341 (Simulation time: 0 hr 4 min 3 sec) 
Heartbeat CPU 0 instructions: 100000000 cycles: 168360637 heartbeat IPC: 0.232851 cumulative IPC: 0.326074 (Simulation time: 0 hr 5 min 2 sec) 
Heartbeat CPU 0 instructions: 110000000 cycles: 204580383 heartbeat IPC: 0.276092 cumulative IPC: 0.316524 (Simulation time: 0 hr 6 min 1 sec) 
Heartbeat CPU 0 instructions: 120000000 cycles: 240923162 heartbeat IPC: 0.275158 cumulative IPC: 0.309869 (Simulation time: 0 hr 6 min 46 sec) 
Heartbeat CPU 0 instructions: 130000003 cycles: 281142918 heartbeat IPC: 0.248634 cumulative IPC: 0.300615 (Simulation time: 0 hr 7 min 32 sec) 
Heartbeat CPU 0 instructions: 140000000 cycles: 304311195 heartbeat IPC: 0.431625 cumulative IPC: 0.311107 (Simulation time: 0 hr 8 min 7 sec) 
Heartbeat CPU 0 instructions: 150000000 cycles: 319055368 heartbeat IPC: 0.678234 cumulative IPC: 0.328911 (Simulation time: 0 hr 8 min 47 sec) 
Finished CPU 0 instructions: 100000001 cycles: 304033914 cumulative IPC: 0.328911 (Simulation time: 0 hr 8 min 47 sec) 

ChampSim completed all CPUs

Region of Interest Statistics

CPU 0 cumulative IPC: 0.328911 instructions: 100000001 cycles: 304033914
ITLB TOTAL     ACCESS:   16650750  HIT:   16650750  MISS:          0  HIT %:        100  MISS %:          0   MPKI: 0
ITLB LOAD TRANSLATION ACCESS:   16650750  HIT:   16650750  MISS:          0  HIT %:        100  MISS %:          0   MPKI: 0
ITLB PREFETCH  REQUESTED:          0  ISSUED:          0  USEFUL:          0  USELESS:          0
ITLB USEFUL LOAD PREFETCHES:          0 PREFETCH ISSUED TO LOWER LEVEL:          0  ACCURACY: -nan
ITLB TIMELY PREFETCHES:          0 LATE PREFETCHES: 0 DROPPED PREFETCHES: 0
ITLB PREFETCHES SAME FILL-ORIGIN LEVEL: 0 DIFFERENT FILL-ORIGIN LEVEL: 0
ITLB AVERAGE MISS LATENCY: -nan cycles
ITLB RQ	ACCESS:   20918104	FORWARD:          0	MERGED:    4267354	TO_CACHE:   16650750

DTLB TOTAL     ACCESS:   18180741  HIT:   18007124  MISS:     173617  HIT %:     99.045  MISS %:    0.95495   MPKI: 1.73617
DTLB LOAD TRANSLATION ACCESS:   18180741  HIT:   18007124  MISS:     173617  HIT %:     99.045  MISS %:    0.95495   MPKI: 1.73617
DTLB PREFETCH  REQUESTED:          0  ISSUED:          0  USEFUL:          0  USELESS:          0
DTLB USEFUL LOAD PREFETCHES:          0 PREFETCH ISSUED TO LOWER LEVEL:          0  ACCURACY: -nan
DTLB TIMELY PREFETCHES:          0 LATE PREFETCHES: 0 DROPPED PREFETCHES: 0
DTLB PREFETCHES SAME FILL-ORIGIN LEVEL: 0 DIFFERENT FILL-ORIGIN LEVEL: 0
DTLB AVERAGE MISS LATENCY: 50.7254 cycles
DTLB RQ	ACCESS:   19319312	FORWARD:          0	MERGED:    1127019	TO_CACHE:   18192293

STLB TOTAL     ACCESS:     173617  HIT:      86173  MISS:      87444  HIT %:     49.634  MISS %:     50.366   MPKI: 0.87444
STLB LOAD TRANSLATION ACCESS:     173617  HIT:      86173  MISS:      87444  HIT %:     49.634  MISS %:     50.366   MPKI: 0.87444
STLB PREFETCH  REQUESTED:          0  ISSUED:          0  USEFUL:          0  USELESS:          0
STLB USEFUL LOAD PREFETCHES:          0 PREFETCH ISSUED TO LOWER LEVEL:          0  ACCURACY: -nan
STLB TIMELY PREFETCHES:          0 LATE PREFETCHES: 0 DROPPED PREFETCHES: 0
STLB PREFETCHES SAME FILL-ORIGIN LEVEL: 0 DIFFERENT FILL-ORIGIN LEVEL: 0
STLB AVERAGE MISS LATENCY: 82.738 cycles
STLB RQ	ACCESS:     173617	FORWARD:          0	MERGED:          0	TO_CACHE:     173617

STLB Hit, L1D data hit: 0
STLB Hit, L2C data hit: 0
STLB Hit, LLC data hit: 0
STLB Hit, LLC data miss: 0
STLB STLB hints to L2: 0
L1D TOTAL     ACCESS:   18166881  HIT:   15757153  MISS:    2409728  HIT %:    86.7356  MISS %:    13.2644   MPKI: 24.0973
L1D LOAD      ACCESS:   15592855  HIT:   13280608  MISS:    2312247  HIT %:    85.1711  MISS %:    14.8289   MPKI: 23.1225
L1D RFO       ACCESS:    2574026  HIT:    2476545  MISS:      97481  HIT %:    96.2129  MISS %:     3.7871   MPKI: 0.97481
L1D PREFETCH  REQUESTED:          0  ISSUED:          0  USEFUL:          0  USELESS:          0
L1D USEFUL LOAD PREFETCHES:          0 PREFETCH ISSUED TO LOWER LEVEL:          0  ACCURACY: -nan
L1D TIMELY PREFETCHES:          0 LATE PREFETCHES: 0 DROPPED PREFETCHES: 0
L1D PREFETCHES SAME FILL-ORIGIN LEVEL: 0 DIFFERENT FILL-ORIGIN LEVEL: 0
L1D AVERAGE MISS LATENCY: 71.5335 cycles
L1D RQ	ACCESS:   23557350	FORWARD:          0	MERGED:    7164192	TO_CACHE:   16383268
L1D WQ	ACCESS:    3048712	FORWARD:       9890	MERGED:     112668	TO_CACHE:    2936044

L1D UNIQUE REGIONS ACCESSED: 0
L1D REGIONS CONFLICTS: 0
L1D Cross Page Prefetch Requests: 0
L1D Same Page Prefetch Requests: 0
L1D ROI Sum of L1D PQ occupancy: 0
L1D PREFETCHES PUSHED FROM L2C: 0
L1I TOTAL     ACCESS:   20918100  HIT:   20918083  MISS:         17  HIT %:    99.9999  MISS %: 8.12693e-05   MPKI: 0.00017
L1I LOAD      ACCESS:   20918100  HIT:   20918083  MISS:         17  HIT %:    99.9999  MISS %: 8.12693e-05   MPKI: 0.00017
L1I PREFETCH  REQUESTED:          0  ISSUED:          0  USEFUL:          0  USELESS:          0
L1I USEFUL LOAD PREFETCHES:          0 PREFETCH ISSUED TO LOWER LEVEL:          0  ACCURACY: -nan
L1I TIMELY PREFETCHES:          0 LATE PREFETCHES: 0 DROPPED PREFETCHES: 0
L1I PREFETCHES SAME FILL-ORIGIN LEVEL: 0 DIFFERENT FILL-ORIGIN LEVEL: 0
L1I AVERAGE MISS LATENCY: 216.176 cycles
L1I RQ	ACCESS:   33352001	FORWARD:          0	MERGED:   12433897	TO_CACHE:   20918104

BTB TOTAL     ACCESS:   20200179  HIT:   20199907  MISS:        272  HIT %:    99.9987  MISS %: 0.00134652   MPKI: 0.00272
BTB BRANCH_DIRECT_JUMP	ACCESS:      16039  HIT:      15994  MISS:         45
BTB BRANCH_INDIRECT	ACCESS:          1  HIT:          0  MISS:          1
BTB BRANCH_CONDITIONAL	ACCESS:   20183825  HIT:   20183723  MISS:        102
BTB BRANCH_DIRECT_CALL	ACCESS:        154  HIT:        111  MISS:         43
BTB BRANCH_INDIRECT_CALL	ACCESS:          3  HIT:          0  MISS:          3
BTB BRANCH_RETURN	ACCESS:        157  HIT:         79  MISS:         78
BTB BRANCH_OTHER ACCESS:          0  HIT:          0  MISS:          0

L2C TOTAL     ACCESS:    2985495  HIT:    1053240  MISS:    1932255  HIT %:    35.2786  MISS %:    64.7214   MPKI: 19.3225
L2C LOAD      ACCESS:    2312263  HIT:     492049  MISS:    1820214  HIT %:      21.28  MISS %:      78.72   MPKI: 18.2021
L2C DATA LOAD MPKI: 18.202
L2C INSTRUCTION LOAD MPKI: 0.00017
L2C RFO       ACCESS:      97481  HIT:       5023  MISS:      92458  HIT %:     5.1528  MISS %:    94.8472   MPKI: 0.92458
L2C PREFETCH  ACCESS:      69903  HIT:      69903  MISS:          0  HIT %:        100  MISS %:          0   MPKI: 0
AGUS PREFETCH L1 MISS: 0
L2C DATA PREFETCH MPKI: 0
L2C INSTRUCTION PREFETCH MPKI: 0
L2C WRITEBACK ACCESS:     417864  HIT:     417846  MISS:         18  HIT %:    99.9957  MISS %: 0.00430762   MPKI: 0.00018
L2C LOAD TRANSLATION ACCESS:      87984  HIT:      68419  MISS:      19565  HIT %:     77.763  MISS %:     22.237   MPKI: 0.19565
L2C PREFETCH  REQUESTED:    3072000  ISSUED:    3071990  USEFUL:          0  USELESS:          0
L2C USEFUL LOAD PREFETCHES:          0 PREFETCH ISSUED TO LOWER LEVEL:    2953811  ACCURACY: 0
L2C TIMELY PREFETCHES:          0 LATE PREFETCHES: 0 DROPPED PREFETCHES: 0
L2C PREFETCHES SAME FILL-ORIGIN LEVEL: 0 DIFFERENT FILL-ORIGIN LEVEL: 2953811
L2C AVERAGE MISS LATENCY: 72.5202 cycles
L2C RQ	ACCESS:    2497729	FORWARD:          0	MERGED:          0	TO_CACHE:    2497728
L2C WQ	ACCESS:     417864	FORWARD:          1	MERGED:          0	TO_CACHE:     417864
L2C PQ	ACCESS:    3071990	FORWARD:          0	MERGED:      21057	TO_CACHE:    3050933

L2C Instructions Evicting Data 17
L2C Translations Evicting Data 19074
L2C Data Evicting Data 1893503
L2C Instructions Evicting Instructions 0
L2C Translations Evicting Instructions 1
L2C Data Evicting Instructions 16
L2C Instructions Evicting Translations 0
L2C Translations Evicting Translations 490
L2C Data Evicting Translations 19136
L2C Dense regions hint from L2: 0
PSCL5 TOTAL     ACCESS:      87444  HIT:      87444  MISS:          0  HIT %:        100  MISS %:          0   MPKI: 0
PSCL5 LOAD TRANSLATION ACCESS:      87444  HIT:      87444  MISS:          0  HIT %:        100  MISS %:          0   MPKI: 0
PSCL5 PREFETCH  REQUESTED:          0  ISSUED:          0  USEFUL:          0  USELESS:          0
PSCL5 USEFUL LOAD PREFETCHES:          0 PREFETCH ISSUED TO LOWER LEVEL:          0  ACCURACY: -nan
PSCL5 TIMELY PREFETCHES:          0 LATE PREFETCHES: 0 DROPPED PREFETCHES: 0
PSCL5 PREFETCHES SAME FILL-ORIGIN LEVEL: 0 DIFFERENT FILL-ORIGIN LEVEL: 0

PSCL4 TOTAL     ACCESS:      87444  HIT:      87444  MISS:          0  HIT %:        100  MISS %:          0   MPKI: 0
PSCL4 LOAD TRANSLATION ACCESS:      87444  HIT:      87444  MISS:          0  HIT %:        100  MISS %:          0   MPKI: 0
PSCL4 PREFETCH  REQUESTED:          0  ISSUED:          0  USEFUL:          0  USELESS:          0
PSCL4 USEFUL LOAD PREFETCHES:          0 PREFETCH ISSUED TO LOWER LEVEL:          0  ACCURACY: -nan
PSCL4 TIMELY PREFETCHES:          0 LATE PREFETCHES: 0 DROPPED PREFETCHES: 0
PSCL4 PREFETCHES SAME FILL-ORIGIN LEVEL: 0 DIFFERENT FILL-ORIGIN LEVEL: 0

PSCL3 TOTAL     ACCESS:      87444  HIT:      87444  MISS:          0  HIT %:        100  MISS %:          0   MPKI: 0
PSCL3 LOAD TRANSLATION ACCESS:      87444  HIT:      87444  MISS:          0  HIT %:        100  MISS %:          0   MPKI: 0
PSCL3 PREFETCH  REQUESTED:          0  ISSUED:          0  USEFUL:          0  USELESS:          0
PSCL3 USEFUL LOAD PREFETCHES:          0 PREFETCH ISSUED TO LOWER LEVEL:          0  ACCURACY: -nan
PSCL3 TIMELY PREFETCHES:          0 LATE PREFETCHES: 0 DROPPED PREFETCHES: 0
PSCL3 PREFETCHES SAME FILL-ORIGIN LEVEL: 0 DIFFERENT FILL-ORIGIN LEVEL: 0

PSCL2 TOTAL     ACCESS:      87444  HIT:      86904  MISS:        540  HIT %:    99.3825  MISS %:   0.617538   MPKI: 0.0054
PSCL2 LOAD TRANSLATION ACCESS:      87444  HIT:      86904  MISS:        540  HIT %:    99.3825  MISS %:   0.617538   MPKI: 0.0054
PSCL2 PREFETCH  REQUESTED:          0  ISSUED:          0  USEFUL:          0  USELESS:          0
PSCL2 USEFUL LOAD PREFETCHES:          0 PREFETCH ISSUED TO LOWER LEVEL:          0  ACCURACY: -nan
PSCL2 TIMELY PREFETCHES:          0 LATE PREFETCHES: 0 DROPPED PREFETCHES: 0
PSCL2 PREFETCHES SAME FILL-ORIGIN LEVEL: 0 DIFFERENT FILL-ORIGIN LEVEL: 0

LLC TOTAL     ACCESS:    5133835  HIT:    2904663  MISS:    2229172  HIT %:    56.5788  MISS %:    43.4212   MPKI: 22.2917
LLC LOAD      ACCESS:    1820213  HIT:    1365087  MISS:     455126  HIT %:     74.996  MISS %:     25.004   MPKI: 4.55126
LLC RFO       ACCESS:      92458  HIT:       3646  MISS:      88812  HIT %:    3.94341  MISS %:    96.0566   MPKI: 0.88812
LLC PREFETCH  ACCESS:    2831913  HIT:    1170315  MISS:    1661598  HIT %:     41.326  MISS %:     58.674   MPKI: 16.616
AGUS PREFETCH L1 MISS: 0
LLC WRITEBACK ACCESS:     369686  HIT:     365195  MISS:       4491  HIT %:    98.7852  MISS %:    1.21481   MPKI: 0.04491
LLC LOAD TRANSLATION ACCESS:      19565  HIT:        420  MISS:      19145  HIT %:    2.14669  MISS %:    97.8533   MPKI: 0.19145
LLC PREFETCH  REQUESTED:          0  ISSUED:          0  USEFUL:    1227711  USELESS:     441899
LLC USEFUL LOAD PREFETCHES:    1227711 PREFETCH ISSUED TO LOWER LEVEL:    1702165  ACCURACY: 72.1264
LLC TIMELY PREFETCHES:    1227711 LATE PREFETCHES: 40567 DROPPED PREFETCHES: 0
LLC PREFETCHES SAME FILL-ORIGIN LEVEL: 1702165 DIFFERENT FILL-ORIGIN LEVEL: 0
LLC AVERAGE MISS LATENCY: 136.265 cycles
LLC RQ	ACCESS:    1932237	FORWARD:          0	MERGED:          0	TO_CACHE:    1932236
LLC WQ	ACCESS:     369686	FORWARD:          1	MERGED:          0	TO_CACHE:     369686
LLC PQ	ACCESS:    2953811	FORWARD:          0	MERGED:      15093	TO_CACHE:    2938718

LLC Dense regions hint to LLC: 0

RAW hits: 146720
Loads Generated: 23704071
Loads sent to L1D: 23557350
Stores Generated: 3048712
Stores sent to L1D: 3048712
Major fault: 0 Minor fault: 27625
Allocated PAGES: 27625
Prefetcher final stats
Training Unit Size: 121
Addr table size: 571718 571718


Triggers: 2639734
No Prediction: 639674 24.2325
Stream end: 249806
No translation: 251252016 9518.08
Predictions: 3604637 136.553


Stream divergence: 194804 7.37968
Stream divergence -- new stream: 0

DRAM Statistics
 CHANNEL 0
 RQ ROW_BUFFER_HIT:     992767  ROW_BUFFER_MISS:    1231885
 DBUS_CONGESTED:       2736
 WQ ROW_BUFFER_HIT:     172905  ROW_BUFFER_MISS:     187954  FULL:          0

 AVG_CONGESTED_CYCLE: 4
 All warmup complete: 2
Channel 0 Bank busy for read cycles: 0
Channel 0 Bank busy for write cycles: 0
Channel 0
Rank 0
0banks busy for read cycles: 116624467
0banks busy for write cycles: 119799
1banks busy for read cycles: 95124251
1banks busy for write cycles: 21617567
2banks busy for read cycles: 29493389
2banks busy for write cycles: 8184376
3banks busy for read cycles: 13597911
3banks busy for write cycles: 3916987
4banks busy for read cycles: 4011451
4banks busy for write cycles: 2323122
5banks busy for read cycles: 1812204
5banks busy for write cycles: 1597123
6banks busy for read cycles: 1102765
6banks busy for write cycles: 1154114
7banks busy for read cycles: 615356
7banks busy for write cycles: 925426
8banks busy for read cycles: 452358
8banks busy for write cycles: 1361249

CPU 0 Branch Prediction Accuracy: 87.3292% MPKI: 27.6799 Average ROB Occupancy at Mispredict: 8.83489
Branch types
NOT_BRANCH: 78154694 78.1547%
BRANCH_DIRECT_JUMP: 16039 0.016039%
BRANCH_INDIRECT: 1 1e-06%
BRANCH_CONDITIONAL: 21829028 21.829%
BRANCH_DIRECT_CALL: 154 0.000154%
BRANCH_INDIRECT_CALL: 3 3e-06%
BRANCH_RETURN: 157 0.000157%
BRANCH_OTHER: 0 0%

DRAM PAGES: 1048576
Allocated PAGES: 27625
