
*** ChampSim Multicore Out-of-Order Simulator ***

Warmup Instructions: 50000000
Simulation Instructions: 50000000
Number of CPUs: 1
LLC sets: 2048
LLC ways: 16
Off-chip DRAM Size: 4096 MB Channels: 1 Width: 64-bit Data Rate: 6400 MT/s
CPU 0 runs ./traces/GAP/SUBSET/bfs-8.trace.gz
.gz
CPU 0 Bimodal branch predictor
BTB has LRU replacement policy
ITLB has LRU replacement policy
DTLB has LRU replacement policy
STLB has LRU replacement policy
L1I has LRU replacement policy
L1D has LRU replacement policy
L2C has LRU replacement policy
LLC has LRU replacement policy
Heartbeat CPU 0 instructions: 10000002 cycles: 2954010 heartbeat IPC: 3.38523 cumulative IPC: 3.38523 (Simulation time: 0 hr 0 min 17 sec) 
Heartbeat CPU 0 instructions: 20000000 cycles: 6062999 heartbeat IPC: 3.21648 cumulative IPC: 3.2987 (Simulation time: 0 hr 0 min 44 sec) 
Heartbeat CPU 0 instructions: 30000002 cycles: 9196146 heartbeat IPC: 3.19168 cumulative IPC: 3.26224 (Simulation time: 0 hr 1 min 12 sec) 
Heartbeat CPU 0 instructions: 40000000 cycles: 12430455 heartbeat IPC: 3.09185 cumulative IPC: 3.2179 (Simulation time: 0 hr 1 min 37 sec) 
Heartbeat CPU 0 instructions: 50000002 cycles: 15701124 heartbeat IPC: 3.05748 cumulative IPC: 3.18449 (Simulation time: 0 hr 1 min 53 sec) 

Warmup complete CPU 0 instructions: 50000002 cycles: 15701124 (Simulation time: 0 hr 1 min 53 sec) 

Heartbeat CPU 0 instructions: 60000000 cycles: 36701753 heartbeat IPC: 0.476176 cumulative IPC: 0.476176 (Simulation time: 0 hr 2 min 29 sec) 
Heartbeat CPU 0 instructions: 70000001 cycles: 64395433 heartbeat IPC: 0.361093 cumulative IPC: 0.410726 (Simulation time: 0 hr 3 min 5 sec) 
Heartbeat CPU 0 instructions: 80000000 cycles: 112045669 heartbeat IPC: 0.209863 cumulative IPC: 0.311382 (Simulation time: 0 hr 3 min 47 sec) 
Heartbeat CPU 0 instructions: 90000000 cycles: 170661374 heartbeat IPC: 0.170603 cumulative IPC: 0.258131 (Simulation time: 0 hr 4 min 30 sec) 
Heartbeat CPU 0 instructions: 100000000 cycles: 229304764 heartbeat IPC: 0.170522 cumulative IPC: 0.234078 (Simulation time: 0 hr 5 min 12 sec) 
Finished CPU 0 instructions: 50000000 cycles: 213603649 cumulative IPC: 0.234078 (Simulation time: 0 hr 5 min 12 sec) 

ChampSim completed all CPUs

Region of Interest Statistics

CPU 0 cumulative IPC: 0.234078 instructions: 50000000 cycles: 213603649
ITLB TOTAL     ACCESS:    7986905  HIT:    7986905  MISS:          0  HIT %:        100  MISS %:          0   MPKI: 0
ITLB LOAD TRANSLATION ACCESS:    7986905  HIT:    7986905  MISS:          0  HIT %:        100  MISS %:          0   MPKI: 0
ITLB PREFETCH  REQUESTED:          0  ISSUED:          0  USEFUL:          0  USELESS:          0
ITLB USEFUL LOAD PREFETCHES:          0 PREFETCH ISSUED TO LOWER LEVEL:          0  ACCURACY: -nan
ITLB TIMELY PREFETCHES:          0 LATE PREFETCHES: 0 DROPPED PREFETCHES: 0
ITLB PREFETCHES SAME FILL-ORIGIN LEVEL: 0 DIFFERENT FILL-ORIGIN LEVEL: 0
ITLB AVERAGE MISS LATENCY: -nan cycles
ITLB RQ	ACCESS:   10537713	FORWARD:          0	MERGED:    2550809	TO_CACHE:    7986904

DTLB TOTAL     ACCESS:    9866375  HIT:    9761980  MISS:     104395  HIT %:    98.9419  MISS %:    1.05809   MPKI: 2.0879
DTLB LOAD TRANSLATION ACCESS:    9866375  HIT:    9761980  MISS:     104395  HIT %:    98.9419  MISS %:    1.05809   MPKI: 2.0879
DTLB PREFETCH  REQUESTED:          0  ISSUED:          0  USEFUL:          0  USELESS:          0
DTLB USEFUL LOAD PREFETCHES:          0 PREFETCH ISSUED TO LOWER LEVEL:          0  ACCURACY: -nan
DTLB TIMELY PREFETCHES:          0 LATE PREFETCHES: 0 DROPPED PREFETCHES: 0
DTLB PREFETCHES SAME FILL-ORIGIN LEVEL: 0 DIFFERENT FILL-ORIGIN LEVEL: 0
DTLB AVERAGE MISS LATENCY: 42.8887 cycles
DTLB RQ	ACCESS:   10624982	FORWARD:          0	MERGED:     750688	TO_CACHE:    9874294

STLB TOTAL     ACCESS:     104395  HIT:      47290  MISS:      57105  HIT %:    45.2991  MISS %:    54.7009   MPKI: 1.1421
STLB LOAD TRANSLATION ACCESS:     104395  HIT:      47290  MISS:      57105  HIT %:    45.2991  MISS %:    54.7009   MPKI: 1.1421
STLB PREFETCH  REQUESTED:          0  ISSUED:          0  USEFUL:          0  USELESS:          0
STLB USEFUL LOAD PREFETCHES:          0 PREFETCH ISSUED TO LOWER LEVEL:          0  ACCURACY: -nan
STLB TIMELY PREFETCHES:          0 LATE PREFETCHES: 0 DROPPED PREFETCHES: 0
STLB PREFETCHES SAME FILL-ORIGIN LEVEL: 0 DIFFERENT FILL-ORIGIN LEVEL: 0
STLB AVERAGE MISS LATENCY: 61.8953 cycles
STLB RQ	ACCESS:     104395	FORWARD:          0	MERGED:          0	TO_CACHE:     104395

STLB Hit, L1D data hit: 0
STLB Hit, L2C data hit: 0
STLB Hit, LLC data hit: 0
STLB Hit, LLC data miss: 0
STLB STLB hints to L2: 0
L1D TOTAL     ACCESS:   10206722  HIT:    8842011  MISS:    1364711  HIT %:    86.6293  MISS %:    13.3707   MPKI: 27.2942
L1D LOAD      ACCESS:    8019015  HIT:    6734502  MISS:    1284513  HIT %:    83.9817  MISS %:    16.0183   MPKI: 25.6903
L1D RFO       ACCESS:    2187707  HIT:    2107509  MISS:      80198  HIT %:    96.3342  MISS %:    3.66585   MPKI: 1.60396
L1D PREFETCH  REQUESTED:          0  ISSUED:          0  USEFUL:          0  USELESS:          0
L1D USEFUL LOAD PREFETCHES:          0 PREFETCH ISSUED TO LOWER LEVEL:          0  ACCURACY: -nan
L1D TIMELY PREFETCHES:          0 LATE PREFETCHES: 0 DROPPED PREFETCHES: 0
L1D PREFETCHES SAME FILL-ORIGIN LEVEL: 0 DIFFERENT FILL-ORIGIN LEVEL: 0
L1D AVERAGE MISS LATENCY: 121.989 cycles
L1D RQ	ACCESS:   12373554	FORWARD:          0	MERGED:    4017511	TO_CACHE:    8352568
L1D WQ	ACCESS:    2328074	FORWARD:       3475	MERGED:      55660	TO_CACHE:    2272414

L1D UNIQUE REGIONS ACCESSED: 0
L1D REGIONS CONFLICTS: 0
L1D Cross Page Prefetch Requests: 0
L1D Same Page Prefetch Requests: 0
L1D ROI Sum of L1D PQ occupancy: 0
L1D PREFETCHES PUSHED FROM L2C: 0
L1I TOTAL     ACCESS:   10537712  HIT:   10537701  MISS:         11  HIT %:    99.9999  MISS %: 0.000104387   MPKI: 0.00022
L1I LOAD      ACCESS:   10537712  HIT:   10537701  MISS:         11  HIT %:    99.9999  MISS %: 0.000104387   MPKI: 0.00022
L1I PREFETCH  REQUESTED:          0  ISSUED:          0  USEFUL:          0  USELESS:          0
L1I USEFUL LOAD PREFETCHES:          0 PREFETCH ISSUED TO LOWER LEVEL:          0  ACCURACY: -nan
L1I TIMELY PREFETCHES:          0 LATE PREFETCHES: 0 DROPPED PREFETCHES: 0
L1I PREFETCHES SAME FILL-ORIGIN LEVEL: 0 DIFFERENT FILL-ORIGIN LEVEL: 0
L1I AVERAGE MISS LATENCY: 176.636 cycles
L1I RQ	ACCESS:   15964431	FORWARD:          0	MERGED:    5426718	TO_CACHE:   10537713

BTB TOTAL     ACCESS:    8929631  HIT:    8929387  MISS:        244  HIT %:    99.9973  MISS %: 0.00273248   MPKI: 0.00488
BTB BRANCH_DIRECT_JUMP	ACCESS:      38408  HIT:      38365  MISS:         43
BTB BRANCH_INDIRECT	ACCESS:          1  HIT:          0  MISS:          1
BTB BRANCH_CONDITIONAL	ACCESS:    8891015  HIT:    8890916  MISS:         99
BTB BRANCH_DIRECT_CALL	ACCESS:        100  HIT:         60  MISS:         40
BTB BRANCH_INDIRECT_CALL	ACCESS:          3  HIT:          0  MISS:          3
BTB BRANCH_RETURN	ACCESS:        104  HIT:         46  MISS:         58
BTB BRANCH_OTHER ACCESS:          0  HIT:          0  MISS:          0

L2C TOTAL     ACCESS:    1626086  HIT:     676400  MISS:     949686  HIT %:    41.5968  MISS %:    58.4032   MPKI: 18.9937
L2C LOAD      ACCESS:    1284524  HIT:     444592  MISS:     839932  HIT %:    34.6114  MISS %:    65.3886   MPKI: 16.7986
L2C DATA LOAD MPKI: 16.7984
L2C INSTRUCTION LOAD MPKI: 0.00022
L2C RFO       ACCESS:      80198  HIT:       2038  MISS:      78160  HIT %:    2.54121  MISS %:    97.4588   MPKI: 1.5632
L2C PREFETCH  ACCESS:      22434  HIT:        152  MISS:      22282  HIT %:   0.677543  MISS %:    99.3225   MPKI: 0.44564
AGUS PREFETCH L1 MISS: 0
L2C DATA PREFETCH MPKI: 0.44564
L2C INSTRUCTION PREFETCH MPKI: 0
L2C WRITEBACK ACCESS:     181557  HIT:     181553  MISS:          4  HIT %:    99.9978  MISS %: 0.00220316   MPKI: 8e-05
L2C LOAD TRANSLATION ACCESS:      57373  HIT:      48065  MISS:       9308  HIT %:    83.7763  MISS %:    16.2237   MPKI: 0.18616
L2C PREFETCH  REQUESTED:      22814  ISSUED:      22814  USEFUL:      12650  USELESS:       9516
L2C USEFUL LOAD PREFETCHES:      12650 PREFETCH ISSUED TO LOWER LEVEL:      22656  ACCURACY: 55.8351
L2C TIMELY PREFETCHES:      12650 LATE PREFETCHES: 374 DROPPED PREFETCHES: 0
L2C PREFETCHES SAME FILL-ORIGIN LEVEL: 22656 DIFFERENT FILL-ORIGIN LEVEL: 0
L2C AVERAGE MISS LATENCY: 159.644 cycles
L2C RQ	ACCESS:    1422095	FORWARD:          0	MERGED:          0	TO_CACHE:    1422095
L2C WQ	ACCESS:     181557	FORWARD:          0	MERGED:          0	TO_CACHE:     181557
L2C PQ	ACCESS:      22814	FORWARD:          0	MERGED:          0	TO_CACHE:      22814

L2C Instructions Evicting Data 11
L2C Translations Evicting Data 9144
L2C Data Evicting Data 931144
L2C Instructions Evicting Instructions 0
L2C Translations Evicting Instructions 1
L2C Data Evicting Instructions 13
L2C Instructions Evicting Translations 0
L2C Translations Evicting Translations 163
L2C Data Evicting Translations 9206
L2C Dense regions hint from L2: 0
PSCL5 TOTAL     ACCESS:      57105  HIT:      57105  MISS:          0  HIT %:        100  MISS %:          0   MPKI: 0
PSCL5 LOAD TRANSLATION ACCESS:      57105  HIT:      57105  MISS:          0  HIT %:        100  MISS %:          0   MPKI: 0
PSCL5 PREFETCH  REQUESTED:          0  ISSUED:          0  USEFUL:          0  USELESS:          0
PSCL5 USEFUL LOAD PREFETCHES:          0 PREFETCH ISSUED TO LOWER LEVEL:          0  ACCURACY: -nan
PSCL5 TIMELY PREFETCHES:          0 LATE PREFETCHES: 0 DROPPED PREFETCHES: 0
PSCL5 PREFETCHES SAME FILL-ORIGIN LEVEL: 0 DIFFERENT FILL-ORIGIN LEVEL: 0

PSCL4 TOTAL     ACCESS:      57105  HIT:      57105  MISS:          0  HIT %:        100  MISS %:          0   MPKI: 0
PSCL4 LOAD TRANSLATION ACCESS:      57105  HIT:      57105  MISS:          0  HIT %:        100  MISS %:          0   MPKI: 0
PSCL4 PREFETCH  REQUESTED:          0  ISSUED:          0  USEFUL:          0  USELESS:          0
PSCL4 USEFUL LOAD PREFETCHES:          0 PREFETCH ISSUED TO LOWER LEVEL:          0  ACCURACY: -nan
PSCL4 TIMELY PREFETCHES:          0 LATE PREFETCHES: 0 DROPPED PREFETCHES: 0
PSCL4 PREFETCHES SAME FILL-ORIGIN LEVEL: 0 DIFFERENT FILL-ORIGIN LEVEL: 0

PSCL3 TOTAL     ACCESS:      57105  HIT:      57105  MISS:          0  HIT %:        100  MISS %:          0   MPKI: 0
PSCL3 LOAD TRANSLATION ACCESS:      57105  HIT:      57105  MISS:          0  HIT %:        100  MISS %:          0   MPKI: 0
PSCL3 PREFETCH  REQUESTED:          0  ISSUED:          0  USEFUL:          0  USELESS:          0
PSCL3 USEFUL LOAD PREFETCHES:          0 PREFETCH ISSUED TO LOWER LEVEL:          0  ACCURACY: -nan
PSCL3 TIMELY PREFETCHES:          0 LATE PREFETCHES: 0 DROPPED PREFETCHES: 0
PSCL3 PREFETCHES SAME FILL-ORIGIN LEVEL: 0 DIFFERENT FILL-ORIGIN LEVEL: 0

PSCL2 TOTAL     ACCESS:      57105  HIT:      56837  MISS:        268  HIT %:    99.5307  MISS %:   0.469311   MPKI: 0.00536
PSCL2 LOAD TRANSLATION ACCESS:      57105  HIT:      56837  MISS:        268  HIT %:    99.5307  MISS %:   0.469311   MPKI: 0.00536
PSCL2 PREFETCH  REQUESTED:          0  ISSUED:          0  USEFUL:          0  USELESS:          0
PSCL2 USEFUL LOAD PREFETCHES:          0 PREFETCH ISSUED TO LOWER LEVEL:          0  ACCURACY: -nan
PSCL2 TIMELY PREFETCHES:          0 LATE PREFETCHES: 0 DROPPED PREFETCHES: 0
PSCL2 PREFETCHES SAME FILL-ORIGIN LEVEL: 0 DIFFERENT FILL-ORIGIN LEVEL: 0

LLC TOTAL     ACCESS:    1124154  HIT:     219300  MISS:     904854  HIT %:     19.508  MISS %:     80.492   MPKI: 18.0971
LLC LOAD      ACCESS:     839558  HIT:      43910  MISS:     795648  HIT %:    5.23013  MISS %:    94.7699   MPKI: 15.913
LLC RFO       ACCESS:      78160  HIT:       1153  MISS:      77007  HIT %:    1.47518  MISS %:    98.5248   MPKI: 1.54014
LLC PREFETCH  ACCESS:      22656  HIT:         37  MISS:      22619  HIT %:   0.163312  MISS %:    99.8367   MPKI: 0.45238
AGUS PREFETCH L1 MISS: 0
LLC WRITEBACK ACCESS:     174472  HIT:     173830  MISS:        642  HIT %:     99.632  MISS %:   0.367967   MPKI: 0.01284
LLC LOAD TRANSLATION ACCESS:       9308  HIT:        370  MISS:       8938  HIT %:    3.97508  MISS %:    96.0249   MPKI: 0.17876
LLC PREFETCH  REQUESTED:          0  ISSUED:          0  USEFUL:          5  USELESS:      21202
LLC USEFUL LOAD PREFETCHES:          5 PREFETCH ISSUED TO LOWER LEVEL:      22619  ACCURACY: 0.0221053
LLC TIMELY PREFETCHES:          5 LATE PREFETCHES: 0 DROPPED PREFETCHES: 0
LLC PREFETCHES SAME FILL-ORIGIN LEVEL: 0 DIFFERENT FILL-ORIGIN LEVEL: 0
LLC AVERAGE MISS LATENCY: 136.051 cycles
LLC RQ	ACCESS:     927026	FORWARD:          0	MERGED:          0	TO_CACHE:     927026
LLC WQ	ACCESS:     174472	FORWARD:          0	MERGED:          0	TO_CACHE:     174472
LLC PQ	ACCESS:      22656	FORWARD:          0	MERGED:          0	TO_CACHE:      22656

LLC Dense regions hint to LLC: 0

RAW hits: 67439
Loads Generated: 12440993
Loads sent to L1D: 12373554
Stores Generated: 2328074
Stores sent to L1D: 2328074
Major fault: 0 Minor fault: 27100
Allocated PAGES: 27100

DRAM Statistics
 CHANNEL 0
 RQ ROW_BUFFER_HIT:     361281  ROW_BUFFER_MISS:     542925
 DBUS_CONGESTED:         81
 WQ ROW_BUFFER_HIT:      40847  ROW_BUFFER_MISS:     127983  FULL:          0

 AVG_CONGESTED_CYCLE: 4
 All warmup complete: 2
Channel 0 Bank busy for read cycles: 0
Channel 0 Bank busy for write cycles: 0
Channel 0
Rank 0
0banks busy for read cycles: 114426074
0banks busy for write cycles: 120109
1banks busy for read cycles: 57529316
1banks busy for write cycles: 19488371
2banks busy for read cycles: 14454532
2banks busy for write cycles: 2504758
3banks busy for read cycles: 2378374
3banks busy for write cycles: 474207
4banks busy for read cycles: 869030
4banks busy for write cycles: 194823
5banks busy for read cycles: 273218
5banks busy for write cycles: 132092
6banks busy for read cycles: 62308
6banks busy for write cycles: 124248
7banks busy for read cycles: 24810
7banks busy for write cycles: 166006
8banks busy for read cycles: 68767
8banks busy for write cycles: 312607

CPU 0 Branch Prediction Accuracy: 85.8901% MPKI: 28.8204 Average ROB Occupancy at Mispredict: 9.87255
Branch types
NOT_BRANCH: 39787130 79.5743%
BRANCH_DIRECT_JUMP: 38408 0.076816%
BRANCH_INDIRECT: 1 2e-06%
BRANCH_CONDITIONAL: 10174236 20.3485%
BRANCH_DIRECT_CALL: 100 0.0002%
BRANCH_INDIRECT_CALL: 3 6e-06%
BRANCH_RETURN: 104 0.000208%
BRANCH_OTHER: 0 0%

DRAM PAGES: 1048576
Allocated PAGES: 27100
