
*** ChampSim Multicore Out-of-Order Simulator ***

Warmup Instructions: 50000000
Simulation Instructions: 100000000
Number of CPUs: 1
LLC sets: 2048
LLC ways: 16
Off-chip DRAM Size: 4096 MB Channels: 1 Width: 64-bit Data Rate: 6400 MT/s
CPU 0 runs ./traces/GAP/bfs-8.trace.gz
.gz
CPU 0 Bimodal branch predictor
BTB has LRU replacement policy
ITLB has LRU replacement policy
DTLB has LRU replacement policy
STLB has LRU replacement policy
L1I has LRU replacement policy
Ideal ISB Prefetching
L1D has LRU replacement policy
L2C has LRU replacement policy
LLC has LRU replacement policy
Heartbeat CPU 0 instructions: 10000002 cycles: 2954010 heartbeat IPC: 3.38523 cumulative IPC: 3.38523 (Simulation time: 0 hr 0 min 18 sec) 
Heartbeat CPU 0 instructions: 20000000 cycles: 6061670 heartbeat IPC: 3.21785 cumulative IPC: 3.29942 (Simulation time: 0 hr 1 min 28 sec) 
Heartbeat CPU 0 instructions: 30000002 cycles: 9195664 heartbeat IPC: 3.19082 cumulative IPC: 3.26241 (Simulation time: 0 hr 2 min 41 sec) 
Heartbeat CPU 0 instructions: 40000000 cycles: 12430487 heartbeat IPC: 3.09136 cumulative IPC: 3.21789 (Simulation time: 0 hr 3 min 38 sec) 
Heartbeat CPU 0 instructions: 50000002 cycles: 15701161 heartbeat IPC: 3.05747 cumulative IPC: 3.18448 (Simulation time: 0 hr 4 min 4 sec) 

Warmup complete CPU 0 instructions: 50000002 cycles: 15701161 (Simulation time: 0 hr 4 min 4 sec) 

Heartbeat CPU 0 instructions: 60000000 cycles: 36201044 heartbeat IPC: 0.487808 cumulative IPC: 0.487808 (Simulation time: 0 hr 4 min 54 sec) 
Heartbeat CPU 0 instructions: 70000001 cycles: 55469829 heartbeat IPC: 0.518974 cumulative IPC: 0.502908 (Simulation time: 0 hr 5 min 34 sec) 
Heartbeat CPU 0 instructions: 80000000 cycles: 86493333 heartbeat IPC: 0.322336 cumulative IPC: 0.423776 (Simulation time: 0 hr 6 min 40 sec) 
Heartbeat CPU 0 instructions: 90000000 cycles: 123264172 heartbeat IPC: 0.271955 cumulative IPC: 0.371875 (Simulation time: 0 hr 8 min 11 sec) 
Heartbeat CPU 0 instructions: 100000000 cycles: 160034236 heartbeat IPC: 0.27196 cumulative IPC: 0.346421 (Simulation time: 0 hr 9 min 41 sec) 
Heartbeat CPU 0 instructions: 110000001 cycles: 202929139 heartbeat IPC: 0.233128 cumulative IPC: 0.320465 (Simulation time: 0 hr 10 min 45 sec) 
Heartbeat CPU 0 instructions: 120000000 cycles: 239515696 heartbeat IPC: 0.273324 cumulative IPC: 0.312759 (Simulation time: 0 hr 11 min 30 sec) 
Heartbeat CPU 0 instructions: 130000001 cycles: 253728644 heartbeat IPC: 0.703584 cumulative IPC: 0.336096 (Simulation time: 0 hr 12 min 0 sec) 
Heartbeat CPU 0 instructions: 140000000 cycles: 267569023 heartbeat IPC: 0.722524 cumulative IPC: 0.35733 (Simulation time: 0 hr 12 min 40 sec) 
Heartbeat CPU 0 instructions: 150000002 cycles: 295457473 heartbeat IPC: 0.358571 cumulative IPC: 0.357454 (Simulation time: 0 hr 13 min 25 sec) 
Finished CPU 0 instructions: 100000000 cycles: 279756312 cumulative IPC: 0.357454 (Simulation time: 0 hr 13 min 25 sec) 

ChampSim completed all CPUs

Region of Interest Statistics

CPU 0 cumulative IPC: 0.357454 instructions: 100000000 cycles: 279756312
ITLB TOTAL     ACCESS:   16715003  HIT:   16715003  MISS:          0  HIT %:        100  MISS %:          0   MPKI: 0
ITLB LOAD TRANSLATION ACCESS:   16715003  HIT:   16715003  MISS:          0  HIT %:        100  MISS %:          0   MPKI: 0
ITLB PREFETCH  REQUESTED:          0  ISSUED:          0  USEFUL:          0  USELESS:          0
ITLB USEFUL LOAD PREFETCHES:          0 PREFETCH ISSUED TO LOWER LEVEL:          0  ACCURACY: -nan
ITLB TIMELY PREFETCHES:          0 LATE PREFETCHES: 0 DROPPED PREFETCHES: 0
ITLB PREFETCHES SAME FILL-ORIGIN LEVEL: 0 DIFFERENT FILL-ORIGIN LEVEL: 0
ITLB AVERAGE MISS LATENCY: -nan cycles
ITLB RQ	ACCESS:   21407739	FORWARD:          0	MERGED:    4692737	TO_CACHE:   16715002

DTLB TOTAL     ACCESS:   18134244  HIT:   17986570  MISS:     147674  HIT %:    99.1857  MISS %:   0.814338   MPKI: 1.47674
DTLB LOAD TRANSLATION ACCESS:   18134244  HIT:   17986570  MISS:     147674  HIT %:    99.1857  MISS %:   0.814338   MPKI: 1.47674
DTLB PREFETCH  REQUESTED:          0  ISSUED:          0  USEFUL:          0  USELESS:          0
DTLB USEFUL LOAD PREFETCHES:          0 PREFETCH ISSUED TO LOWER LEVEL:          0  ACCURACY: -nan
DTLB TIMELY PREFETCHES:          0 LATE PREFETCHES: 0 DROPPED PREFETCHES: 0
DTLB PREFETCHES SAME FILL-ORIGIN LEVEL: 0 DIFFERENT FILL-ORIGIN LEVEL: 0
DTLB AVERAGE MISS LATENCY: 27.9684 cycles
DTLB RQ	ACCESS:   19264822	FORWARD:          0	MERGED:    1121172	TO_CACHE:   18143650

STLB TOTAL     ACCESS:    1240481  HIT:    1136050  MISS:     104431  HIT %:    91.5814  MISS %:    8.41859   MPKI: 1.04431
STLB LOAD TRANSLATION ACCESS:     147674  HIT:     115100  MISS:      32574  HIT %:     77.942  MISS %:     22.058   MPKI: 0.32574
STLB TRANSLATION FROM L1D PREFETCHER ACCESS:    1092807  HIT:    1020950  MISS:      71857  HIT %:    93.4245  MISS %:    6.57545   MPKI: 0.71857
STLB PREFETCH  REQUESTED:          0  ISSUED:          0  USEFUL:      60924  USELESS:      11124
STLB USEFUL LOAD PREFETCHES:      60924 PREFETCH ISSUED TO LOWER LEVEL:          0  ACCURACY: inf
STLB TIMELY PREFETCHES:      60924 LATE PREFETCHES: 565 DROPPED PREFETCHES: 0
STLB PREFETCHES SAME FILL-ORIGIN LEVEL: 0 DIFFERENT FILL-ORIGIN LEVEL: 0
STLB AVERAGE MISS LATENCY: 98.0017 cycles
STLB RQ	ACCESS:    2504002	FORWARD:          0	MERGED:    1261701	TO_CACHE:    1242301

STLB Hit, L1D data hit: 0
STLB Hit, L2C data hit: 0
STLB Hit, LLC data hit: 0
STLB Hit, LLC data miss: 0
STLB STLB hints to L2: 0
L1D TOTAL     ACCESS:   20414560  HIT:   17182575  MISS:    3231985  HIT %:    84.1682  MISS %:    15.8318   MPKI: 32.3199
L1D LOAD      ACCESS:   15312723  HIT:   14257737  MISS:    1054986  HIT %:    93.1104  MISS %:     6.8896   MPKI: 10.5499
L1D RFO       ACCESS:    2847299  HIT:    2690547  MISS:     156752  HIT %:    94.4947  MISS %:    5.50529   MPKI: 1.56752
L1D PREFETCH  ACCESS:    2254538  HIT:     234291  MISS:    2020247  HIT %:     10.392  MISS %:     89.608   MPKI: 20.2025
AGUS PREFETCH L1 MISS: 0
L1D PREFETCH  REQUESTED:    4959427  ISSUED:    4737309  USEFUL:    1118010  USELESS:     902170
L1D USEFUL LOAD PREFETCHES:    1118010 PREFETCH ISSUED TO LOWER LEVEL:    2044541  ACCURACY: 54.6827
L1D TIMELY PREFETCHES:    1118010 LATE PREFETCHES: 24292 DROPPED PREFETCHES: 0
L1D PREFETCHES SAME FILL-ORIGIN LEVEL: 2044541 DIFFERENT FILL-ORIGIN LEVEL: 0
L1D AVERAGE MISS LATENCY: 132.694 cycles
L1D RQ	ACCESS:   23408077	FORWARD:          0	MERGED:    7754133	TO_CACHE:   15646820
L1D WQ	ACCESS:    3674122	FORWARD:       7127	MERGED:      56120	TO_CACHE:    3618002
L1D PQ	ACCESS:    2380981	FORWARD:          0	MERGED:      24650	TO_CACHE:    2356328

L1D UNIQUE REGIONS ACCESSED: 0
L1D REGIONS CONFLICTS: 0
L1D Cross Page Prefetch Requests: 1819162
L1D Same Page Prefetch Requests: 1771704
L1D ROI Sum of L1D PQ occupancy: 59126911
L1D PREFETCHES PUSHED FROM L2C: 0
L1I TOTAL     ACCESS:   21407737  HIT:   21407724  MISS:         13  HIT %:    99.9999  MISS %: 6.07257e-05   MPKI: 0.00013
L1I LOAD      ACCESS:   21407737  HIT:   21407724  MISS:         13  HIT %:    99.9999  MISS %: 6.07257e-05   MPKI: 0.00013
L1I PREFETCH  REQUESTED:          0  ISSUED:          0  USEFUL:          0  USELESS:          0
L1I USEFUL LOAD PREFETCHES:          0 PREFETCH ISSUED TO LOWER LEVEL:          0  ACCURACY: -nan
L1I TIMELY PREFETCHES:          0 LATE PREFETCHES: 0 DROPPED PREFETCHES: 0
L1I PREFETCHES SAME FILL-ORIGIN LEVEL: 0 DIFFERENT FILL-ORIGIN LEVEL: 0
L1I AVERAGE MISS LATENCY: 197.615 cycles
L1I RQ	ACCESS:   33866575	FORWARD:          0	MERGED:   12458836	TO_CACHE:   21407739

BTB TOTAL     ACCESS:   19816992  HIT:   19816688  MISS:        304  HIT %:    99.9985  MISS %: 0.00153404   MPKI: 0.00304
BTB BRANCH_DIRECT_JUMP	ACCESS:      38942  HIT:      38896  MISS:         46
BTB BRANCH_INDIRECT	ACCESS:          2  HIT:          1  MISS:          1
BTB BRANCH_CONDITIONAL	ACCESS:   19777627  HIT:   19777524  MISS:        103
BTB BRANCH_DIRECT_CALL	ACCESS:        204  HIT:        160  MISS:         44
BTB BRANCH_INDIRECT_CALL	ACCESS:          6  HIT:          3  MISS:          3
BTB BRANCH_RETURN	ACCESS:        211  HIT:        104  MISS:        107
BTB BRANCH_OTHER ACCESS:          0  HIT:          0  MISS:          0

L2C TOTAL     ACCESS:    3656856  HIT:    1435011  MISS:    2221845  HIT %:    39.2417  MISS %:    60.7583   MPKI: 22.2185
L2C LOAD      ACCESS:    1030707  HIT:     533812  MISS:     496895  HIT %:    51.7909  MISS %:    48.2091   MPKI: 4.96895
L2C DATA LOAD MPKI: 4.96882
L2C INSTRUCTION LOAD MPKI: 0.00013
L2C RFO       ACCESS:     156752  HIT:       4741  MISS:     152011  HIT %:    3.02452  MISS %:    96.9755   MPKI: 1.52011
L2C PREFETCH  ACCESS:    2044534  HIT:     494794  MISS:    1549740  HIT %:    24.2008  MISS %:    75.7992   MPKI: 15.4974
AGUS PREFETCH L1 MISS: 0
L2C DATA PREFETCH MPKI: 15.4974
L2C INSTRUCTION PREFETCH MPKI: 0
L2C WRITEBACK ACCESS:     319909  HIT:     319901  MISS:          8  HIT %:    99.9975  MISS %: 0.00250071   MPKI: 8e-05
L2C LOAD TRANSLATION ACCESS:      32321  HIT:      25657  MISS:       6664  HIT %:    79.3818  MISS %:    20.6182   MPKI: 0.06664
L2C TRANSLATION FROM L1D PREFETCHER ACCESS:      72633  HIT:      56106  MISS:      16527  HIT %:    77.2459  MISS %:    22.7541   MPKI: 0.16527
L2C PREFETCH  REQUESTED:          0  ISSUED:          0  USEFUL:      35363  USELESS:    1531636
L2C USEFUL LOAD PREFETCHES:      35363 PREFETCH ISSUED TO LOWER LEVEL:    1549740  ACCURACY: 2.28187
L2C TIMELY PREFETCHES:      35363 LATE PREFETCHES: 0 DROPPED PREFETCHES: 0
L2C PREFETCHES SAME FILL-ORIGIN LEVEL: 0 DIFFERENT FILL-ORIGIN LEVEL: 0
L2C AVERAGE MISS LATENCY: 172.012 cycles
L2C RQ	ACCESS:    1292415	FORWARD:          0	MERGED:          0	TO_CACHE:    1292415
L2C WQ	ACCESS:     319910	FORWARD:          5	MERGED:          0	TO_CACHE:     319910
L2C PQ	ACCESS:    2044541	FORWARD:          0	MERGED:          0	TO_CACHE:    2044536

L2C Instructions Evicting Data 13
L2C Translations Evicting Data 22906
L2C Data Evicting Data 2175691
L2C Instructions Evicting Instructions 0
L2C Translations Evicting Instructions 0
L2C Data Evicting Instructions 16
L2C Instructions Evicting Translations 0
L2C Translations Evicting Translations 285
L2C Data Evicting Translations 22926
L2C Dense regions hint from L2: 0
PSCL5 TOTAL     ACCESS:     104431  HIT:     104431  MISS:          0  HIT %:        100  MISS %:          0   MPKI: 0
PSCL5 LOAD TRANSLATION ACCESS:      32009  HIT:      32009  MISS:          0  HIT %:        100  MISS %:          0   MPKI: 0
PSCL5 TRANSLATION FROM L1D PREFETCHER ACCESS:      72422  HIT:      72422  MISS:          0  HIT %:        100  MISS %:          0   MPKI: 0
PSCL5 PREFETCH  REQUESTED:          0  ISSUED:          0  USEFUL:          0  USELESS:          0
PSCL5 USEFUL LOAD PREFETCHES:          0 PREFETCH ISSUED TO LOWER LEVEL:          0  ACCURACY: -nan
PSCL5 TIMELY PREFETCHES:          0 LATE PREFETCHES: 0 DROPPED PREFETCHES: 0
PSCL5 PREFETCHES SAME FILL-ORIGIN LEVEL: 0 DIFFERENT FILL-ORIGIN LEVEL: 0

PSCL4 TOTAL     ACCESS:     104431  HIT:     104431  MISS:          0  HIT %:        100  MISS %:          0   MPKI: 0
PSCL4 LOAD TRANSLATION ACCESS:      32009  HIT:      32009  MISS:          0  HIT %:        100  MISS %:          0   MPKI: 0
PSCL4 TRANSLATION FROM L1D PREFETCHER ACCESS:      72422  HIT:      72422  MISS:          0  HIT %:        100  MISS %:          0   MPKI: 0
PSCL4 PREFETCH  REQUESTED:          0  ISSUED:          0  USEFUL:          0  USELESS:          0
PSCL4 USEFUL LOAD PREFETCHES:          0 PREFETCH ISSUED TO LOWER LEVEL:          0  ACCURACY: -nan
PSCL4 TIMELY PREFETCHES:          0 LATE PREFETCHES: 0 DROPPED PREFETCHES: 0
PSCL4 PREFETCHES SAME FILL-ORIGIN LEVEL: 0 DIFFERENT FILL-ORIGIN LEVEL: 0

PSCL3 TOTAL     ACCESS:     104431  HIT:     104431  MISS:          0  HIT %:        100  MISS %:          0   MPKI: 0
PSCL3 LOAD TRANSLATION ACCESS:      32009  HIT:      32009  MISS:          0  HIT %:        100  MISS %:          0   MPKI: 0
PSCL3 TRANSLATION FROM L1D PREFETCHER ACCESS:      72422  HIT:      72422  MISS:          0  HIT %:        100  MISS %:          0   MPKI: 0
PSCL3 PREFETCH  REQUESTED:          0  ISSUED:          0  USEFUL:          0  USELESS:          0
PSCL3 USEFUL LOAD PREFETCHES:          0 PREFETCH ISSUED TO LOWER LEVEL:          0  ACCURACY: -nan
PSCL3 TIMELY PREFETCHES:          0 LATE PREFETCHES: 0 DROPPED PREFETCHES: 0
PSCL3 PREFETCHES SAME FILL-ORIGIN LEVEL: 0 DIFFERENT FILL-ORIGIN LEVEL: 0

PSCL2 TOTAL     ACCESS:     104431  HIT:     103908  MISS:        523  HIT %:    99.4992  MISS %:   0.500809   MPKI: 0.00523
PSCL2 LOAD TRANSLATION ACCESS:      32220  HIT:      31697  MISS:        523  HIT %:    98.3768  MISS %:    1.62322   MPKI: 0.00523
PSCL2 TRANSLATION FROM L1D PREFETCHER ACCESS:      72211  HIT:      72211  MISS:          0  HIT %:        100  MISS %:          0   MPKI: 0
PSCL2 PREFETCH  REQUESTED:          0  ISSUED:          0  USEFUL:          0  USELESS:          0
PSCL2 USEFUL LOAD PREFETCHES:          0 PREFETCH ISSUED TO LOWER LEVEL:          0  ACCURACY: -nan
PSCL2 TIMELY PREFETCHES:          0 LATE PREFETCHES: 0 DROPPED PREFETCHES: 0
PSCL2 PREFETCHES SAME FILL-ORIGIN LEVEL: 0 DIFFERENT FILL-ORIGIN LEVEL: 0

LLC TOTAL     ACCESS:    2530896  HIT:     422901  MISS:    2107995  HIT %:    16.7095  MISS %:    83.2905   MPKI: 21.08
LLC LOAD      ACCESS:     496895  HIT:      51738  MISS:     445157  HIT %:    10.4123  MISS %:    89.5877   MPKI: 4.45157
LLC RFO       ACCESS:     152011  HIT:       4128  MISS:     147883  HIT %:    2.71559  MISS %:    97.2844   MPKI: 1.47883
LLC PREFETCH  ACCESS:    1549740  HIT:      54081  MISS:    1495659  HIT %:    3.48968  MISS %:    96.5103   MPKI: 14.9566
AGUS PREFETCH L1 MISS: 0
LLC WRITEBACK ACCESS:     309059  HIT:     306872  MISS:       2187  HIT %:    99.2924  MISS %:   0.707632   MPKI: 0.02187
LLC LOAD TRANSLATION ACCESS:       6664  HIT:       1617  MISS:       5047  HIT %:    24.2647  MISS %:    75.7353   MPKI: 0.05047
LLC TRANSLATION FROM L1D PREFETCHER ACCESS:      16527  HIT:       4465  MISS:      12062  HIT %:    27.0164  MISS %:    72.9836   MPKI: 0.12062
LLC PREFETCH  REQUESTED:          0  ISSUED:          0  USEFUL:      12478  USELESS:    1502724
LLC USEFUL LOAD PREFETCHES:      12478 PREFETCH ISSUED TO LOWER LEVEL:    1495659  ACCURACY: 0.834281
LLC TIMELY PREFETCHES:      12478 LATE PREFETCHES: 0 DROPPED PREFETCHES: 0
LLC PREFETCHES SAME FILL-ORIGIN LEVEL: 0 DIFFERENT FILL-ORIGIN LEVEL: 0
LLC AVERAGE MISS LATENCY: 149.672 cycles
LLC RQ	ACCESS:     672097	FORWARD:          0	MERGED:          0	TO_CACHE:     672097
LLC WQ	ACCESS:     309059	FORWARD:          0	MERGED:          0	TO_CACHE:     309059
LLC PQ	ACCESS:    1549740	FORWARD:          0	MERGED:          0	TO_CACHE:    1549740

LLC Dense regions hint to LLC: 0

RAW hits: 78971
Loads Generated: 23487048
Loads sent to L1D: 23408077
Stores Generated: 3674122
Stores sent to L1D: 3674122
Major fault: 0 Minor fault: 27118
Allocated PAGES: 27118
Prefetcher final stats
Training Unit Size: 153
Addr table size: 513747 513747


Triggers: 2149233
No Prediction: 658626 30.6447
Stream end: 1213332
No translation: 1229891637 57224.7
Predictions: 3590866 167.077


Stream divergence: 469314 21.8363
Stream divergence -- new stream: 0

DRAM Statistics
 CHANNEL 0
 RQ ROW_BUFFER_HIT:    1007384  ROW_BUFFER_MISS:    1098406
 DBUS_CONGESTED:        167
 WQ ROW_BUFFER_HIT:      41289  ROW_BUFFER_MISS:     251563  FULL:          0

 AVG_CONGESTED_CYCLE: 4
 All warmup complete: 2
Channel 0 Bank busy for read cycles: 0
Channel 0 Bank busy for write cycles: 0
Channel 0
Rank 0
0banks busy for read cycles: 184300634
0banks busy for write cycles: 122564
1banks busy for read cycles: 32919000
1banks busy for write cycles: 14625740
2banks busy for read cycles: 9123488
2banks busy for write cycles: 3938755
3banks busy for read cycles: 5569022
3banks busy for write cycles: 1577094
4banks busy for read cycles: 4374414
4banks busy for write cycles: 707165
5banks busy for read cycles: 4522454
5banks busy for write cycles: 346640
6banks busy for read cycles: 5082465
6banks busy for write cycles: 216642
7banks busy for read cycles: 4635549
7banks busy for write cycles: 408938
8banks busy for read cycles: 5546245
8banks busy for write cycles: 1739504

CPU 0 Branch Prediction Accuracy: 86.1281% MPKI: 30.6762 Average ROB Occupancy at Mispredict: 7.56766
Branch types
NOT_BRANCH: 77886091 77.8861%
BRANCH_DIRECT_JUMP: 38942 0.038942%
BRANCH_INDIRECT: 2 2e-06%
BRANCH_CONDITIONAL: 22074556 22.0746%
BRANCH_DIRECT_CALL: 204 0.000204%
BRANCH_INDIRECT_CALL: 6 6e-06%
BRANCH_RETURN: 211 0.000211%
BRANCH_OTHER: 0 0%

DRAM PAGES: 1048576
Allocated PAGES: 27118
