
*** ChampSim Multicore Out-of-Order Simulator ***

Warmup Instructions: 50000000
Simulation Instructions: 100000000
Number of CPUs: 1
LLC sets: 2048
LLC ways: 16
Off-chip DRAM Size: 4096 MB Channels: 1 Width: 64-bit Data Rate: 6400 MT/s
CPU 0 runs ./traces/GAP/bfs-10.trace.gz
.gz
CPU 0 Bimodal branch predictor
BTB has LRU replacement policy
ITLB has LRU replacement policy
DTLB has LRU replacement policy
STLB has LRU replacement policy
L1I has LRU replacement policy
L1D has LRU replacement policy
Ideal ISB Prefetching
L2C has LRU replacement policy
LLC has LRU replacement policy
Heartbeat CPU 0 instructions: 10000000 cycles: 2953906 heartbeat IPC: 3.38535 cumulative IPC: 3.38535 (Simulation time: 0 hr 0 min 18 sec) 
Heartbeat CPU 0 instructions: 20000000 cycles: 5901491 heartbeat IPC: 3.39261 cumulative IPC: 3.38897 (Simulation time: 0 hr 0 min 37 sec) 
Heartbeat CPU 0 instructions: 30000002 cycles: 8835415 heartbeat IPC: 3.40841 cumulative IPC: 3.39543 (Simulation time: 0 hr 0 min 56 sec) 
Heartbeat CPU 0 instructions: 40000000 cycles: 11769629 heartbeat IPC: 3.40807 cumulative IPC: 3.39858 (Simulation time: 0 hr 1 min 15 sec) 
Heartbeat CPU 0 instructions: 50000003 cycles: 14702474 heartbeat IPC: 3.40966 cumulative IPC: 3.40079 (Simulation time: 0 hr 1 min 34 sec) 

Warmup complete CPU 0 instructions: 50000003 cycles: 14702474 (Simulation time: 0 hr 1 min 34 sec) 

Heartbeat CPU 0 instructions: 60000000 cycles: 56547027 heartbeat IPC: 0.23898 cumulative IPC: 0.23898 (Simulation time: 0 hr 2 min 14 sec) 
Heartbeat CPU 0 instructions: 70000003 cycles: 99948913 heartbeat IPC: 0.230405 cumulative IPC: 0.234614 (Simulation time: 0 hr 2 min 58 sec) 
Heartbeat CPU 0 instructions: 80000000 cycles: 138650232 heartbeat IPC: 0.258389 cumulative IPC: 0.242037 (Simulation time: 0 hr 3 min 36 sec) 
Heartbeat CPU 0 instructions: 90000000 cycles: 150649260 heartbeat IPC: 0.833401 cumulative IPC: 0.294233 (Simulation time: 0 hr 4 min 4 sec) 
Heartbeat CPU 0 instructions: 100000000 cycles: 167514955 heartbeat IPC: 0.59292 cumulative IPC: 0.327198 (Simulation time: 0 hr 4 min 37 sec) 
Heartbeat CPU 0 instructions: 110000001 cycles: 198289488 heartbeat IPC: 0.324944 cumulative IPC: 0.32682 (Simulation time: 0 hr 5 min 14 sec) 
Heartbeat CPU 0 instructions: 120000000 cycles: 238100256 heartbeat IPC: 0.251188 cumulative IPC: 0.313342 (Simulation time: 0 hr 5 min 53 sec) 
Heartbeat CPU 0 instructions: 130000002 cycles: 278004477 heartbeat IPC: 0.2506 cumulative IPC: 0.303834 (Simulation time: 0 hr 6 min 32 sec) 
Heartbeat CPU 0 instructions: 140000000 cycles: 321543859 heartbeat IPC: 0.229677 cumulative IPC: 0.293311 (Simulation time: 0 hr 7 min 14 sec) 
Heartbeat CPU 0 instructions: 150000000 cycles: 369525555 heartbeat IPC: 0.208413 cumulative IPC: 0.281831 (Simulation time: 0 hr 7 min 58 sec) 
Finished CPU 0 instructions: 100000000 cycles: 354823098 cumulative IPC: 0.281831 (Simulation time: 0 hr 7 min 58 sec) 

ChampSim completed all CPUs

Region of Interest Statistics

CPU 0 cumulative IPC: 0.281831 instructions: 100000000 cycles: 354823098
ITLB TOTAL     ACCESS:   16249416  HIT:   16249416  MISS:          0  HIT %:        100  MISS %:          0   MPKI: 0
ITLB LOAD TRANSLATION ACCESS:   16249416  HIT:   16249416  MISS:          0  HIT %:        100  MISS %:          0   MPKI: 0
ITLB PREFETCH  REQUESTED:          0  ISSUED:          0  USEFUL:          0  USELESS:          0
ITLB USEFUL LOAD PREFETCHES:          0 PREFETCH ISSUED TO LOWER LEVEL:          0  ACCURACY: -nan
ITLB TIMELY PREFETCHES:          0 LATE PREFETCHES: 0 DROPPED PREFETCHES: 0
ITLB PREFETCHES SAME FILL-ORIGIN LEVEL: 0 DIFFERENT FILL-ORIGIN LEVEL: 0
ITLB AVERAGE MISS LATENCY: -nan cycles
ITLB RQ	ACCESS:   20971229	FORWARD:          0	MERGED:    4721813	TO_CACHE:   16249416

DTLB TOTAL     ACCESS:   19949107  HIT:   19836380  MISS:     112727  HIT %:    99.4349  MISS %:   0.565073   MPKI: 1.12727
DTLB LOAD TRANSLATION ACCESS:   19949107  HIT:   19836380  MISS:     112727  HIT %:    99.4349  MISS %:   0.565073   MPKI: 1.12727
DTLB PREFETCH  REQUESTED:          0  ISSUED:          0  USEFUL:          0  USELESS:          0
DTLB USEFUL LOAD PREFETCHES:          0 PREFETCH ISSUED TO LOWER LEVEL:          0  ACCURACY: -nan
DTLB TIMELY PREFETCHES:          0 LATE PREFETCHES: 0 DROPPED PREFETCHES: 0
DTLB PREFETCHES SAME FILL-ORIGIN LEVEL: 0 DIFFERENT FILL-ORIGIN LEVEL: 0
DTLB AVERAGE MISS LATENCY: 70.093 cycles
DTLB RQ	ACCESS:   21511380	FORWARD:          0	MERGED:    1558455	TO_CACHE:   19952925

STLB TOTAL     ACCESS:     112727  HIT:      13470  MISS:      99257  HIT %:    11.9492  MISS %:    88.0508   MPKI: 0.99257
STLB LOAD TRANSLATION ACCESS:     112727  HIT:      13470  MISS:      99257  HIT %:    11.9492  MISS %:    88.0508   MPKI: 0.99257
STLB PREFETCH  REQUESTED:          0  ISSUED:          0  USEFUL:          0  USELESS:          0
STLB USEFUL LOAD PREFETCHES:          0 PREFETCH ISSUED TO LOWER LEVEL:          0  ACCURACY: -nan
STLB TIMELY PREFETCHES:          0 LATE PREFETCHES: 0 DROPPED PREFETCHES: 0
STLB PREFETCHES SAME FILL-ORIGIN LEVEL: 0 DIFFERENT FILL-ORIGIN LEVEL: 0
STLB AVERAGE MISS LATENCY: 69.3806 cycles
STLB RQ	ACCESS:     112727	FORWARD:          0	MERGED:          0	TO_CACHE:     112727

STLB Hit, L1D data hit: 0
STLB Hit, L2C data hit: 0
STLB Hit, LLC data hit: 0
STLB Hit, LLC data miss: 0
STLB STLB hints to L2: 0
L1D TOTAL     ACCESS:   20607982  HIT:   17660184  MISS:    2947798  HIT %:    85.6958  MISS %:    14.3042   MPKI: 29.478
L1D LOAD      ACCESS:   17841229  HIT:   14974591  MISS:    2866638  HIT %:    83.9325  MISS %:    16.0675   MPKI: 28.6664
L1D RFO       ACCESS:    2766753  HIT:    2685593  MISS:      81160  HIT %:    97.0666  MISS %:     2.9334   MPKI: 0.8116
L1D PREFETCH  REQUESTED:          0  ISSUED:          0  USEFUL:          0  USELESS:          0
L1D USEFUL LOAD PREFETCHES:          0 PREFETCH ISSUED TO LOWER LEVEL:          0  ACCURACY: -nan
L1D TIMELY PREFETCHES:          0 LATE PREFETCHES: 0 DROPPED PREFETCHES: 0
L1D PREFETCHES SAME FILL-ORIGIN LEVEL: 0 DIFFERENT FILL-ORIGIN LEVEL: 0
L1D AVERAGE MISS LATENCY: 48.8797 cycles
L1D RQ	ACCESS:   25409632	FORWARD:          0	MERGED:    6987988	TO_CACHE:   18416159
L1D WQ	ACCESS:    3129175	FORWARD:       5485	MERGED:      33954	TO_CACHE:    3095221

L1D UNIQUE REGIONS ACCESSED: 0
L1D REGIONS CONFLICTS: 0
L1D Cross Page Prefetch Requests: 0
L1D Same Page Prefetch Requests: 0
L1D ROI Sum of L1D PQ occupancy: 0
L1D PREFETCHES PUSHED FROM L2C: 0
L1I TOTAL     ACCESS:   20971227  HIT:   20971212  MISS:         15  HIT %:    99.9999  MISS %: 7.15266e-05   MPKI: 0.00015
L1I LOAD      ACCESS:   20971227  HIT:   20971212  MISS:         15  HIT %:    99.9999  MISS %: 7.15266e-05   MPKI: 0.00015
L1I PREFETCH  REQUESTED:          0  ISSUED:          0  USEFUL:          0  USELESS:          0
L1I USEFUL LOAD PREFETCHES:          0 PREFETCH ISSUED TO LOWER LEVEL:          0  ACCURACY: -nan
L1I TIMELY PREFETCHES:          0 LATE PREFETCHES: 0 DROPPED PREFETCHES: 0
L1I PREFETCHES SAME FILL-ORIGIN LEVEL: 0 DIFFERENT FILL-ORIGIN LEVEL: 0
L1I AVERAGE MISS LATENCY: 195.667 cycles
L1I RQ	ACCESS:   32040571	FORWARD:          0	MERGED:   11069342	TO_CACHE:   20971229

BTB TOTAL     ACCESS:   20135180  HIT:   20134924  MISS:        256  HIT %:    99.9987  MISS %: 0.00127141   MPKI: 0.00256
BTB BRANCH_DIRECT_JUMP	ACCESS:       3705  HIT:       3661  MISS:         44
BTB BRANCH_INDIRECT	ACCESS:          1  HIT:          0  MISS:          1
BTB BRANCH_CONDITIONAL	ACCESS:   20131240  HIT:   20131139  MISS:        101
BTB BRANCH_DIRECT_CALL	ACCESS:        114  HIT:         72  MISS:         42
BTB BRANCH_INDIRECT_CALL	ACCESS:          3  HIT:          0  MISS:          3
BTB BRANCH_RETURN	ACCESS:        117  HIT:         52  MISS:         65
BTB BRANCH_OTHER ACCESS:          0  HIT:          0  MISS:          0

L2C TOTAL     ACCESS:    3413007  HIT:    1539621  MISS:    1873386  HIT %:    45.1104  MISS %:    54.8896   MPKI: 18.7339
L2C LOAD      ACCESS:    2866653  HIT:    1087186  MISS:    1779467  HIT %:    37.9253  MISS %:    62.0747   MPKI: 17.7947
L2C DATA LOAD MPKI: 17.7945
L2C INSTRUCTION LOAD MPKI: 0.00015
L2C RFO       ACCESS:      81160  HIT:       6578  MISS:      74582  HIT %:    8.10498  MISS %:     91.895   MPKI: 0.74582
L2C PREFETCH  ACCESS:      63021  HIT:      63021  MISS:          0  HIT %:        100  MISS %:          0   MPKI: 0
AGUS PREFETCH L1 MISS: 0
L2C DATA PREFETCH MPKI: 0
L2C INSTRUCTION PREFETCH MPKI: 0
L2C WRITEBACK ACCESS:     302511  HIT:     302498  MISS:         13  HIT %:    99.9957  MISS %: 0.00429736   MPKI: 0.00013
L2C LOAD TRANSLATION ACCESS:      99662  HIT:      80338  MISS:      19324  HIT %:    80.6105  MISS %:    19.3895   MPKI: 0.19324
L2C PREFETCH  REQUESTED:    3334622  ISSUED:    3334622  USEFUL:          0  USELESS:          0
L2C USEFUL LOAD PREFETCHES:          0 PREFETCH ISSUED TO LOWER LEVEL:    3261765  ACCURACY: 0
L2C TIMELY PREFETCHES:          0 LATE PREFETCHES: 0 DROPPED PREFETCHES: 0
L2C PREFETCHES SAME FILL-ORIGIN LEVEL: 0 DIFFERENT FILL-ORIGIN LEVEL: 3261765
L2C AVERAGE MISS LATENCY: 55.3152 cycles
L2C RQ	ACCESS:    3047475	FORWARD:          0	MERGED:          0	TO_CACHE:    3047475
L2C WQ	ACCESS:     302511	FORWARD:          0	MERGED:          0	TO_CACHE:     302511
L2C PQ	ACCESS:    3334622	FORWARD:          0	MERGED:       4522	TO_CACHE:    3330100

L2C Instructions Evicting Data 15
L2C Translations Evicting Data 18888
L2C Data Evicting Data 1835136
L2C Instructions Evicting Instructions 0
L2C Translations Evicting Instructions 1
L2C Data Evicting Instructions 14
L2C Instructions Evicting Translations 0
L2C Translations Evicting Translations 435
L2C Data Evicting Translations 18884
L2C Dense regions hint from L2: 0
PSCL5 TOTAL     ACCESS:      99257  HIT:      99257  MISS:          0  HIT %:        100  MISS %:          0   MPKI: 0
PSCL5 LOAD TRANSLATION ACCESS:      99257  HIT:      99257  MISS:          0  HIT %:        100  MISS %:          0   MPKI: 0
PSCL5 PREFETCH  REQUESTED:          0  ISSUED:          0  USEFUL:          0  USELESS:          0
PSCL5 USEFUL LOAD PREFETCHES:          0 PREFETCH ISSUED TO LOWER LEVEL:          0  ACCURACY: -nan
PSCL5 TIMELY PREFETCHES:          0 LATE PREFETCHES: 0 DROPPED PREFETCHES: 0
PSCL5 PREFETCHES SAME FILL-ORIGIN LEVEL: 0 DIFFERENT FILL-ORIGIN LEVEL: 0

PSCL4 TOTAL     ACCESS:      99257  HIT:      99257  MISS:          0  HIT %:        100  MISS %:          0   MPKI: 0
PSCL4 LOAD TRANSLATION ACCESS:      99257  HIT:      99257  MISS:          0  HIT %:        100  MISS %:          0   MPKI: 0
PSCL4 PREFETCH  REQUESTED:          0  ISSUED:          0  USEFUL:          0  USELESS:          0
PSCL4 USEFUL LOAD PREFETCHES:          0 PREFETCH ISSUED TO LOWER LEVEL:          0  ACCURACY: -nan
PSCL4 TIMELY PREFETCHES:          0 LATE PREFETCHES: 0 DROPPED PREFETCHES: 0
PSCL4 PREFETCHES SAME FILL-ORIGIN LEVEL: 0 DIFFERENT FILL-ORIGIN LEVEL: 0

PSCL3 TOTAL     ACCESS:      99257  HIT:      99257  MISS:          0  HIT %:        100  MISS %:          0   MPKI: 0
PSCL3 LOAD TRANSLATION ACCESS:      99257  HIT:      99257  MISS:          0  HIT %:        100  MISS %:          0   MPKI: 0
PSCL3 PREFETCH  REQUESTED:          0  ISSUED:          0  USEFUL:          0  USELESS:          0
PSCL3 USEFUL LOAD PREFETCHES:          0 PREFETCH ISSUED TO LOWER LEVEL:          0  ACCURACY: -nan
PSCL3 TIMELY PREFETCHES:          0 LATE PREFETCHES: 0 DROPPED PREFETCHES: 0
PSCL3 PREFETCHES SAME FILL-ORIGIN LEVEL: 0 DIFFERENT FILL-ORIGIN LEVEL: 0

PSCL2 TOTAL     ACCESS:      99257  HIT:      98845  MISS:        412  HIT %:    99.5849  MISS %:   0.415084   MPKI: 0.00412
PSCL2 LOAD TRANSLATION ACCESS:      99257  HIT:      98845  MISS:        412  HIT %:    99.5849  MISS %:   0.415084   MPKI: 0.00412
PSCL2 PREFETCH  REQUESTED:          0  ISSUED:          0  USEFUL:          0  USELESS:          0
PSCL2 USEFUL LOAD PREFETCHES:          0 PREFETCH ISSUED TO LOWER LEVEL:          0  ACCURACY: -nan
PSCL2 TIMELY PREFETCHES:          0 LATE PREFETCHES: 0 DROPPED PREFETCHES: 0
PSCL2 PREFETCHES SAME FILL-ORIGIN LEVEL: 0 DIFFERENT FILL-ORIGIN LEVEL: 0

LLC TOTAL     ACCESS:    5372210  HIT:    3191673  MISS:    2180537  HIT %:    59.4108  MISS %:    40.5892   MPKI: 21.8054
LLC LOAD      ACCESS:    1779467  HIT:    1537282  MISS:     242185  HIT %:      86.39  MISS %:      13.61   MPKI: 2.42185
LLC RFO       ACCESS:      74582  HIT:       1807  MISS:      72775  HIT %:    2.42284  MISS %:    97.5772   MPKI: 0.72775
LLC PREFETCH  ACCESS:    3197024  HIT:    1356198  MISS:    1840826  HIT %:    42.4206  MISS %:    57.5794   MPKI: 18.4083
AGUS PREFETCH L1 MISS: 0
LLC WRITEBACK ACCESS:     301813  HIT:     296028  MISS:       5785  HIT %:    98.0833  MISS %:    1.91675   MPKI: 0.05785
LLC LOAD TRANSLATION ACCESS:      19324  HIT:        358  MISS:      18966  HIT %:    1.85262  MISS %:    98.1474   MPKI: 0.18966
LLC PREFETCH  REQUESTED:          0  ISSUED:          0  USEFUL:    1487492  USELESS:     352280
LLC USEFUL LOAD PREFETCHES:    1487492 PREFETCH ISSUED TO LOWER LEVEL:    1848801  ACCURACY: 80.4571
LLC TIMELY PREFETCHES:    1487492 LATE PREFETCHES: 7975 DROPPED PREFETCHES: 0
LLC PREFETCHES SAME FILL-ORIGIN LEVEL: 1848801 DIFFERENT FILL-ORIGIN LEVEL: 0
LLC AVERAGE MISS LATENCY: 136.164 cycles
LLC RQ	ACCESS:    1873373	FORWARD:          0	MERGED:          0	TO_CACHE:    1873373
LLC WQ	ACCESS:     301813	FORWARD:          0	MERGED:          0	TO_CACHE:     301813
LLC PQ	ACCESS:    3261765	FORWARD:          0	MERGED:       2346	TO_CACHE:    3259419

LLC Dense regions hint to LLC: 0

RAW hits: 51880
Loads Generated: 25461513
Loads sent to L1D: 25409632
Stores Generated: 3129175
Stores sent to L1D: 3129175
Major fault: 0 Minor fault: 27202
Allocated PAGES: 27202
Prefetcher final stats
Training Unit Size: 117
Addr table size: 563058 563059


Triggers: 2435368
No Prediction: 601228 24.6874
Stream end: 60326
No translation: 58040442 2383.23
Predictions: 3572388 146.688


Stream divergence: 91596 3.76107
Stream divergence -- new stream: 0

DRAM Statistics
 CHANNEL 0
 RQ ROW_BUFFER_HIT:     873855  ROW_BUFFER_MISS:    1300884
 DBUS_CONGESTED:       2503
 WQ ROW_BUFFER_HIT:      98877  ROW_BUFFER_MISS:     201885  FULL:          0

 AVG_CONGESTED_CYCLE: 4
 All warmup complete: 2
Channel 0 Bank busy for read cycles: 0
Channel 0 Bank busy for write cycles: 0
Channel 0
Rank 0
0banks busy for read cycles: 140406121
0banks busy for write cycles: 169259
1banks busy for read cycles: 125801240
1banks busy for write cycles: 29066158
2banks busy for read cycles: 32633334
2banks busy for write cycles: 7844237
3banks busy for read cycles: 11226885
3banks busy for write cycles: 2284462
4banks busy for read cycles: 2137467
4banks busy for write cycles: 798406
5banks busy for read cycles: 343878
5banks busy for write cycles: 375289
6banks busy for read cycles: 213106
6banks busy for write cycles: 250403
7banks busy for read cycles: 169807
7banks busy for write cycles: 229659
8banks busy for read cycles: 177253
8banks busy for write cycles: 696135

CPU 0 Branch Prediction Accuracy: 82.0873% MPKI: 38.1202 Average ROB Occupancy at Mispredict: 7.35641
Branch types
NOT_BRANCH: 78718951 78.719%
BRANCH_DIRECT_JUMP: 3705 0.003705%
BRANCH_INDIRECT: 1 1e-06%
BRANCH_CONDITIONAL: 21277098 21.2771%
BRANCH_DIRECT_CALL: 114 0.000114%
BRANCH_INDIRECT_CALL: 3 3e-06%
BRANCH_RETURN: 117 0.000117%
BRANCH_OTHER: 0 0%

DRAM PAGES: 1048576
Allocated PAGES: 27202
