
*** ChampSim Multicore Out-of-Order Simulator ***

Warmup Instructions: 50000000
Simulation Instructions: 100000000
Number of CPUs: 1
LLC sets: 2048
LLC ways: 16
Off-chip DRAM Size: 4096 MB Channels: 1 Width: 64-bit Data Rate: 6400 MT/s
CPU 0 runs ./traces/GAP/cc-13.trace.gz
.gz
CPU 0 Bimodal branch predictor
BTB has LRU replacement policy
ITLB has LRU replacement policy
DTLB has LRU replacement policy
STLB has LRU replacement policy
L1I has LRU replacement policy
L1D has LRU replacement policy
Ideal ISB Prefetching
L2C has LRU replacement policy
LLC has LRU replacement policy
Heartbeat CPU 0 instructions: 10000000 cycles: 3097940 heartbeat IPC: 3.22795 cumulative IPC: 3.22795 (Simulation time: 0 hr 0 min 57 sec) 
Heartbeat CPU 0 instructions: 20000000 cycles: 6190564 heartbeat IPC: 3.2335 cumulative IPC: 3.23072 (Simulation time: 0 hr 2 min 22 sec) 
Heartbeat CPU 0 instructions: 30000001 cycles: 9288485 heartbeat IPC: 3.22797 cumulative IPC: 3.22981 (Simulation time: 0 hr 3 min 51 sec) 
Heartbeat CPU 0 instructions: 40000000 cycles: 12389697 heartbeat IPC: 3.22455 cumulative IPC: 3.22849 (Simulation time: 0 hr 5 min 23 sec) 
Heartbeat CPU 0 instructions: 50000003 cycles: 15498374 heartbeat IPC: 3.2168 cumulative IPC: 3.22615 (Simulation time: 0 hr 6 min 56 sec) 

Warmup complete CPU 0 instructions: 50000003 cycles: 15498374 (Simulation time: 0 hr 6 min 56 sec) 

Heartbeat CPU 0 instructions: 60000000 cycles: 78069130 heartbeat IPC: 0.159819 cumulative IPC: 0.159819 (Simulation time: 0 hr 8 min 50 sec) 
Heartbeat CPU 0 instructions: 70000000 cycles: 138520128 heartbeat IPC: 0.165423 cumulative IPC: 0.162573 (Simulation time: 0 hr 10 min 45 sec) 
Heartbeat CPU 0 instructions: 80000000 cycles: 199187720 heartbeat IPC: 0.164833 cumulative IPC: 0.163319 (Simulation time: 0 hr 12 min 41 sec) 
Heartbeat CPU 0 instructions: 90000003 cycles: 260416053 heartbeat IPC: 0.163323 cumulative IPC: 0.16332 (Simulation time: 0 hr 14 min 40 sec) 
Heartbeat CPU 0 instructions: 100000000 cycles: 319005588 heartbeat IPC: 0.170679 cumulative IPC: 0.164741 (Simulation time: 0 hr 16 min 40 sec) 
Heartbeat CPU 0 instructions: 110000001 cycles: 377144430 heartbeat IPC: 0.172002 cumulative IPC: 0.165908 (Simulation time: 0 hr 18 min 39 sec) 
Heartbeat CPU 0 instructions: 120000000 cycles: 435565753 heartbeat IPC: 0.17117 cumulative IPC: 0.16664 (Simulation time: 0 hr 20 min 39 sec) 
Heartbeat CPU 0 instructions: 130000000 cycles: 496422126 heartbeat IPC: 0.164321 cumulative IPC: 0.166347 (Simulation time: 0 hr 22 min 38 sec) 
Heartbeat CPU 0 instructions: 140000000 cycles: 556747549 heartbeat IPC: 0.165768 cumulative IPC: 0.166282 (Simulation time: 0 hr 24 min 39 sec) 
Heartbeat CPU 0 instructions: 150000000 cycles: 612883145 heartbeat IPC: 0.17814 cumulative IPC: 0.167396 (Simulation time: 0 hr 26 min 40 sec) 
Finished CPU 0 instructions: 100000000 cycles: 597384854 cumulative IPC: 0.167396 (Simulation time: 0 hr 26 min 40 sec) 

ChampSim completed all CPUs

Region of Interest Statistics

CPU 0 cumulative IPC: 0.167396 instructions: 100000000 cycles: 597384854
ITLB TOTAL     ACCESS:   16376275  HIT:   16376275  MISS:          0  HIT %:        100  MISS %:          0   MPKI: 0
ITLB LOAD TRANSLATION ACCESS:   16376275  HIT:   16376275  MISS:          0  HIT %:        100  MISS %:          0   MPKI: 0
ITLB PREFETCH  REQUESTED:          0  ISSUED:          0  USEFUL:          0  USELESS:          0
ITLB USEFUL LOAD PREFETCHES:          0 PREFETCH ISSUED TO LOWER LEVEL:          0  ACCURACY: -nan
ITLB TIMELY PREFETCHES:          0 LATE PREFETCHES: 0 DROPPED PREFETCHES: 0
ITLB PREFETCHES SAME FILL-ORIGIN LEVEL: 0 DIFFERENT FILL-ORIGIN LEVEL: 0
ITLB AVERAGE MISS LATENCY: -nan cycles
ITLB RQ	ACCESS:   16593527	FORWARD:          0	MERGED:     217253	TO_CACHE:   16376274

DTLB TOTAL     ACCESS:   20704832  HIT:   15710008  MISS:    4994824  HIT %:     75.876  MISS %:     24.124   MPKI: 49.9482
DTLB LOAD TRANSLATION ACCESS:   20704832  HIT:   15710008  MISS:    4994824  HIT %:     75.876  MISS %:     24.124   MPKI: 49.9482
DTLB PREFETCH  REQUESTED:          0  ISSUED:          0  USEFUL:          0  USELESS:          0
DTLB USEFUL LOAD PREFETCHES:          0 PREFETCH ISSUED TO LOWER LEVEL:          0  ACCURACY: -nan
DTLB TIMELY PREFETCHES:          0 LATE PREFETCHES: 0 DROPPED PREFETCHES: 0
DTLB PREFETCHES SAME FILL-ORIGIN LEVEL: 0 DIFFERENT FILL-ORIGIN LEVEL: 0
DTLB AVERAGE MISS LATENCY: 9.62956 cycles
DTLB RQ	ACCESS:   21743790	FORWARD:          0	MERGED:    1018571	TO_CACHE:   20725219

STLB TOTAL     ACCESS:    4994824  HIT:    4987343  MISS:       7481  HIT %:    99.8502  MISS %:   0.149775   MPKI: 0.07481
STLB LOAD TRANSLATION ACCESS:    4994824  HIT:    4987343  MISS:       7481  HIT %:    99.8502  MISS %:   0.149775   MPKI: 0.07481
STLB PREFETCH  REQUESTED:          0  ISSUED:          0  USEFUL:          0  USELESS:          0
STLB USEFUL LOAD PREFETCHES:          0 PREFETCH ISSUED TO LOWER LEVEL:          0  ACCURACY: -nan
STLB TIMELY PREFETCHES:          0 LATE PREFETCHES: 0 DROPPED PREFETCHES: 0
STLB PREFETCHES SAME FILL-ORIGIN LEVEL: 0 DIFFERENT FILL-ORIGIN LEVEL: 0
STLB AVERAGE MISS LATENCY: 138.866 cycles
STLB RQ	ACCESS:    4994824	FORWARD:          0	MERGED:          0	TO_CACHE:    4994824

STLB Hit, L1D data hit: 0
STLB Hit, L2C data hit: 0
STLB Hit, LLC data hit: 0
STLB Hit, LLC data miss: 0
STLB STLB hints to L2: 0
L1D TOTAL     ACCESS:   21320979  HIT:   13730150  MISS:    7590829  HIT %:    64.3974  MISS %:    35.6026   MPKI: 75.9083
L1D LOAD      ACCESS:   21142914  HIT:   13552085  MISS:    7590829  HIT %:    64.0975  MISS %:    35.9025   MPKI: 75.9083
L1D RFO       ACCESS:     178065  HIT:     178065  MISS:          0  HIT %:        100  MISS %:          0   MPKI: 0
L1D PREFETCH  REQUESTED:          0  ISSUED:          0  USEFUL:          0  USELESS:          0
L1D USEFUL LOAD PREFETCHES:          0 PREFETCH ISSUED TO LOWER LEVEL:          0  ACCURACY: -nan
L1D TIMELY PREFETCHES:          0 LATE PREFETCHES: 0 DROPPED PREFETCHES: 0
L1D PREFETCHES SAME FILL-ORIGIN LEVEL: 0 DIFFERENT FILL-ORIGIN LEVEL: 0
L1D AVERAGE MISS LATENCY: 86.4204 cycles
L1D RQ	ACCESS:   27754115	FORWARD:          0	MERGED:    6184363	TO_CACHE:   21565725
L1D WQ	ACCESS:     178065	FORWARD:       4027	MERGED:          0	TO_CACHE:     178065

L1D UNIQUE REGIONS ACCESSED: 0
L1D REGIONS CONFLICTS: 0
L1D Cross Page Prefetch Requests: 0
L1D Same Page Prefetch Requests: 0
L1D ROI Sum of L1D PQ occupancy: 0
L1D PREFETCHES PUSHED FROM L2C: 0
L1I TOTAL     ACCESS:   16593528  HIT:   16593528  MISS:          0  HIT %:        100  MISS %:          0   MPKI: 0
L1I LOAD      ACCESS:   16593528  HIT:   16593528  MISS:          0  HIT %:        100  MISS %:          0   MPKI: 0
L1I PREFETCH  REQUESTED:          0  ISSUED:          0  USEFUL:          0  USELESS:          0
L1I USEFUL LOAD PREFETCHES:          0 PREFETCH ISSUED TO LOWER LEVEL:          0  ACCURACY: -nan
L1I TIMELY PREFETCHES:          0 LATE PREFETCHES: 0 DROPPED PREFETCHES: 0
L1I PREFETCHES SAME FILL-ORIGIN LEVEL: 0 DIFFERENT FILL-ORIGIN LEVEL: 0
L1I AVERAGE MISS LATENCY: -nan cycles
L1I RQ	ACCESS:   27003304	FORWARD:          0	MERGED:   10409777	TO_CACHE:   16593527

BTB TOTAL     ACCESS:   20268975  HIT:   20268970  MISS:          5  HIT %:        100  MISS %: 2.46682e-05   MPKI: 5e-05
BTB BRANCH_DIRECT_JUMP	ACCESS:          0  HIT:          0  MISS:          0
BTB BRANCH_INDIRECT	ACCESS:          0  HIT:          0  MISS:          0
BTB BRANCH_CONDITIONAL	ACCESS:   20268975  HIT:   20268970  MISS:          5
BTB BRANCH_DIRECT_CALL	ACCESS:          0  HIT:          0  MISS:          0
BTB BRANCH_INDIRECT_CALL	ACCESS:          0  HIT:          0  MISS:          0
BTB BRANCH_RETURN	ACCESS:          0  HIT:          0  MISS:          0
BTB BRANCH_OTHER ACCESS:          0  HIT:          0  MISS:          0

L2C TOTAL     ACCESS:    8387811  HIT:    3103987  MISS:    5283824  HIT %:    37.0059  MISS %:    62.9941   MPKI: 52.8382
L2C LOAD      ACCESS:    7590829  HIT:    2308377  MISS:    5282452  HIT %:    30.4101  MISS %:    69.5899   MPKI: 52.8245
L2C DATA LOAD MPKI: 52.8245
L2C INSTRUCTION LOAD MPKI: 0
L2C PREFETCH  ACCESS:     648311  HIT:     648311  MISS:          0  HIT %:        100  MISS %:          0   MPKI: 0
AGUS PREFETCH L1 MISS: 0
L2C DATA PREFETCH MPKI: 0
L2C INSTRUCTION PREFETCH MPKI: 0
L2C WRITEBACK ACCESS:     141190  HIT:     141124  MISS:         66  HIT %:    99.9533  MISS %:  0.0467455   MPKI: 0.00066
L2C LOAD TRANSLATION ACCESS:       7481  HIT:       6175  MISS:       1306  HIT %:    82.5424  MISS %:    17.4576   MPKI: 0.01306
L2C PREFETCH  REQUESTED:    4085314  ISSUED:    4085314  USEFUL:          0  USELESS:          0
L2C USEFUL LOAD PREFETCHES:          0 PREFETCH ISSUED TO LOWER LEVEL:    3421716  ACCURACY: 0
L2C TIMELY PREFETCHES:          0 LATE PREFETCHES: 0 DROPPED PREFETCHES: 0
L2C PREFETCHES SAME FILL-ORIGIN LEVEL: 0 DIFFERENT FILL-ORIGIN LEVEL: 3421716
L2C AVERAGE MISS LATENCY: 102.388 cycles
L2C RQ	ACCESS:    7598310	FORWARD:          0	MERGED:          0	TO_CACHE:    7598310
L2C WQ	ACCESS:     141190	FORWARD:          0	MERGED:          0	TO_CACHE:     141190
L2C PQ	ACCESS:    4085314	FORWARD:          0	MERGED:       5202	TO_CACHE:    4080112

L2C Instructions Evicting Data 0
L2C Translations Evicting Data 1306
L2C Data Evicting Data 5281146
L2C Instructions Evicting Instructions 0
L2C Translations Evicting Instructions 0
L2C Data Evicting Instructions 0
L2C Instructions Evicting Translations 0
L2C Translations Evicting Translations 0
L2C Data Evicting Translations 1306
L2C Dense regions hint from L2: 0
PSCL5 TOTAL     ACCESS:       7481  HIT:       7481  MISS:          0  HIT %:        100  MISS %:          0   MPKI: 0
PSCL5 LOAD TRANSLATION ACCESS:       7481  HIT:       7481  MISS:          0  HIT %:        100  MISS %:          0   MPKI: 0
PSCL5 PREFETCH  REQUESTED:          0  ISSUED:          0  USEFUL:          0  USELESS:          0
PSCL5 USEFUL LOAD PREFETCHES:          0 PREFETCH ISSUED TO LOWER LEVEL:          0  ACCURACY: -nan
PSCL5 TIMELY PREFETCHES:          0 LATE PREFETCHES: 0 DROPPED PREFETCHES: 0
PSCL5 PREFETCHES SAME FILL-ORIGIN LEVEL: 0 DIFFERENT FILL-ORIGIN LEVEL: 0

PSCL4 TOTAL     ACCESS:       7481  HIT:       7481  MISS:          0  HIT %:        100  MISS %:          0   MPKI: 0
PSCL4 LOAD TRANSLATION ACCESS:       7481  HIT:       7481  MISS:          0  HIT %:        100  MISS %:          0   MPKI: 0
PSCL4 PREFETCH  REQUESTED:          0  ISSUED:          0  USEFUL:          0  USELESS:          0
PSCL4 USEFUL LOAD PREFETCHES:          0 PREFETCH ISSUED TO LOWER LEVEL:          0  ACCURACY: -nan
PSCL4 TIMELY PREFETCHES:          0 LATE PREFETCHES: 0 DROPPED PREFETCHES: 0
PSCL4 PREFETCHES SAME FILL-ORIGIN LEVEL: 0 DIFFERENT FILL-ORIGIN LEVEL: 0

PSCL3 TOTAL     ACCESS:       7481  HIT:       7481  MISS:          0  HIT %:        100  MISS %:          0   MPKI: 0
PSCL3 LOAD TRANSLATION ACCESS:       7481  HIT:       7481  MISS:          0  HIT %:        100  MISS %:          0   MPKI: 0
PSCL3 PREFETCH  REQUESTED:          0  ISSUED:          0  USEFUL:          0  USELESS:          0
PSCL3 USEFUL LOAD PREFETCHES:          0 PREFETCH ISSUED TO LOWER LEVEL:          0  ACCURACY: -nan
PSCL3 TIMELY PREFETCHES:          0 LATE PREFETCHES: 0 DROPPED PREFETCHES: 0
PSCL3 PREFETCHES SAME FILL-ORIGIN LEVEL: 0 DIFFERENT FILL-ORIGIN LEVEL: 0

PSCL2 TOTAL     ACCESS:       7481  HIT:       7466  MISS:         15  HIT %:    99.7995  MISS %:   0.200508   MPKI: 0.00015
PSCL2 LOAD TRANSLATION ACCESS:       7481  HIT:       7466  MISS:         15  HIT %:    99.7995  MISS %:   0.200508   MPKI: 0.00015
PSCL2 PREFETCH  REQUESTED:          0  ISSUED:          0  USEFUL:          0  USELESS:          0
PSCL2 USEFUL LOAD PREFETCHES:          0 PREFETCH ISSUED TO LOWER LEVEL:          0  ACCURACY: -nan
PSCL2 TIMELY PREFETCHES:          0 LATE PREFETCHES: 0 DROPPED PREFETCHES: 0
PSCL2 PREFETCHES SAME FILL-ORIGIN LEVEL: 0 DIFFERENT FILL-ORIGIN LEVEL: 0

LLC TOTAL     ACCESS:    8843277  HIT:    5485241  MISS:    3358036  HIT %:    62.0272  MISS %:    37.9728   MPKI: 33.5804
LLC LOAD      ACCESS:    5282452  HIT:    2889043  MISS:    2393409  HIT %:    54.6913  MISS %:    45.3087   MPKI: 23.9341
LLC PREFETCH  ACCESS:    3418550  HIT:    2456087  MISS:     962463  HIT %:    71.8459  MISS %:    28.1541   MPKI: 9.62463
AGUS PREFETCH L1 MISS: 0
LLC WRITEBACK ACCESS:     140969  HIT:     139774  MISS:       1195  HIT %:    99.1523  MISS %:   0.847704   MPKI: 0.01195
LLC LOAD TRANSLATION ACCESS:       1306  HIT:        337  MISS:        969  HIT %:     25.804  MISS %:     74.196   MPKI: 0.00969
LLC PREFETCH  REQUESTED:          0  ISSUED:          0  USEFUL:     379313  USELESS:     582557
LLC USEFUL LOAD PREFETCHES:     379313 PREFETCH ISSUED TO LOWER LEVEL:     963967  ACCURACY: 39.3492
LLC TIMELY PREFETCHES:     379313 LATE PREFETCHES: 1504 DROPPED PREFETCHES: 0
LLC PREFETCHES SAME FILL-ORIGIN LEVEL: 963967 DIFFERENT FILL-ORIGIN LEVEL: 0
LLC AVERAGE MISS LATENCY: 165.906 cycles
LLC RQ	ACCESS:    5283758	FORWARD:          0	MERGED:          0	TO_CACHE:    5283758
LLC WQ	ACCESS:     140969	FORWARD:          0	MERGED:          0	TO_CACHE:     140969
LLC PQ	ACCESS:    3421716	FORWARD:          0	MERGED:       1124	TO_CACHE:    3420592

LLC Dense regions hint to LLC: 0

RAW hits: 26734
Loads Generated: 27780849
Loads sent to L1D: 27754115
Stores Generated: 178065
Stores sent to L1D: 178065
Major fault: 0 Minor fault: 12079
Allocated PAGES: 12079
Prefetcher final stats
Training Unit Size: 63
Addr table size: 761278 761278


Triggers: 7748749
No Prediction: 1405229 18.1349
Stream end: 4163932
No translation: 4235294211 54657.8
Predictions: 6006312 77.5133


Stream divergence: 1774800 22.9043
Stream divergence -- new stream: 0

DRAM Statistics
 CHANNEL 0
 RQ ROW_BUFFER_HIT:     604254  ROW_BUFFER_MISS:    2752571
 DBUS_CONGESTED:        339
 WQ ROW_BUFFER_HIT:      52628  ROW_BUFFER_MISS:      86964  FULL:          0

 AVG_CONGESTED_CYCLE: 4
 All warmup complete: 2
Channel 0 Bank busy for read cycles: 0
Channel 0 Bank busy for write cycles: 0
Channel 0
Rank 0
0banks busy for read cycles: 291187618
0banks busy for write cycles: 120589
1banks busy for read cycles: 176530438
1banks busy for write cycles: 23507211
2banks busy for read cycles: 62732450
2banks busy for write cycles: 2335111
3banks busy for read cycles: 26731174
3banks busy for write cycles: 293101
4banks busy for read cycles: 9706324
4banks busy for write cycles: 45381
5banks busy for read cycles: 3212678
5banks busy for write cycles: 5092
6banks busy for read cycles: 823545
6banks busy for write cycles: 1349
7banks busy for read cycles: 139210
7banks busy for write cycles: 153
8banks busy for read cycles: 13431
8banks busy for write cycles: 0

CPU 0 Branch Prediction Accuracy: 87.9754% MPKI: 24.4845 Average ROB Occupancy at Mispredict: 18.585
Branch types
NOT_BRANCH: 79637752 79.6378%
BRANCH_DIRECT_JUMP: 0 0%
BRANCH_INDIRECT: 0 0%
BRANCH_CONDITIONAL: 20361987 20.362%
BRANCH_DIRECT_CALL: 0 0%
BRANCH_INDIRECT_CALL: 0 0%
BRANCH_RETURN: 0 0%
BRANCH_OTHER: 0 0%

DRAM PAGES: 1048576
Allocated PAGES: 12079
