
*** ChampSim Multicore Out-of-Order Simulator ***

Warmup Instructions: 50000000
Simulation Instructions: 100000000
Number of CPUs: 1
LLC sets: 2048
LLC ways: 16
Off-chip DRAM Size: 4096 MB Channels: 1 Width: 64-bit Data Rate: 6400 MT/s
CPU 0 runs ./traces/GAP/cc-13.trace.gz
.gz
CPU 0 Bimodal branch predictor
BTB has LRU replacement policy
ITLB has LRU replacement policy
DTLB has LRU replacement policy
STLB has LRU replacement policy
L1I has LRU replacement policy
L1D has LRU replacement policy
L2C has LRU replacement policy
LLC has LRU replacement policy
Heartbeat CPU 0 instructions: 10000000 cycles: 3097902 heartbeat IPC: 3.22799 cumulative IPC: 3.22799 (Simulation time: 0 hr 0 min 25 sec) 
Heartbeat CPU 0 instructions: 20000000 cycles: 6190315 heartbeat IPC: 3.23372 cumulative IPC: 3.23085 (Simulation time: 0 hr 0 min 53 sec) 
Heartbeat CPU 0 instructions: 30000001 cycles: 9288036 heartbeat IPC: 3.22818 cumulative IPC: 3.22996 (Simulation time: 0 hr 1 min 20 sec) 
Heartbeat CPU 0 instructions: 40000000 cycles: 12389013 heartbeat IPC: 3.22479 cumulative IPC: 3.22867 (Simulation time: 0 hr 1 min 47 sec) 
Heartbeat CPU 0 instructions: 50000003 cycles: 15497701 heartbeat IPC: 3.21679 cumulative IPC: 3.22629 (Simulation time: 0 hr 2 min 15 sec) 

Warmup complete CPU 0 instructions: 50000003 cycles: 15497701 (Simulation time: 0 hr 2 min 15 sec) 

Heartbeat CPU 0 instructions: 60000000 cycles: 77428232 heartbeat IPC: 0.161471 cumulative IPC: 0.161471 (Simulation time: 0 hr 3 min 1 sec) 
Heartbeat CPU 0 instructions: 70000000 cycles: 137248518 heartbeat IPC: 0.167167 cumulative IPC: 0.16427 (Simulation time: 0 hr 3 min 48 sec) 
Heartbeat CPU 0 instructions: 80000000 cycles: 197307918 heartbeat IPC: 0.166502 cumulative IPC: 0.165007 (Simulation time: 0 hr 4 min 34 sec) 
Heartbeat CPU 0 instructions: 90000003 cycles: 257898284 heartbeat IPC: 0.165043 cumulative IPC: 0.165016 (Simulation time: 0 hr 5 min 21 sec) 
Heartbeat CPU 0 instructions: 100000000 cycles: 315725672 heartbeat IPC: 0.172928 cumulative IPC: 0.16654 (Simulation time: 0 hr 6 min 8 sec) 
Heartbeat CPU 0 instructions: 110000001 cycles: 373149869 heartbeat IPC: 0.174143 cumulative IPC: 0.167761 (Simulation time: 0 hr 6 min 55 sec) 
Heartbeat CPU 0 instructions: 120000000 cycles: 430948367 heartbeat IPC: 0.173015 cumulative IPC: 0.168492 (Simulation time: 0 hr 7 min 42 sec) 
Heartbeat CPU 0 instructions: 130000000 cycles: 491140906 heartbeat IPC: 0.166134 cumulative IPC: 0.168193 (Simulation time: 0 hr 8 min 28 sec) 
Heartbeat CPU 0 instructions: 140000000 cycles: 550774353 heartbeat IPC: 0.167691 cumulative IPC: 0.168137 (Simulation time: 0 hr 9 min 15 sec) 
Heartbeat CPU 0 instructions: 150000000 cycles: 606294053 heartbeat IPC: 0.180116 cumulative IPC: 0.169263 (Simulation time: 0 hr 10 min 2 sec) 
Finished CPU 0 instructions: 100000000 cycles: 590796605 cumulative IPC: 0.169263 (Simulation time: 0 hr 10 min 2 sec) 

ChampSim completed all CPUs

Region of Interest Statistics

CPU 0 cumulative IPC: 0.169263 instructions: 100000000 cycles: 590796605
ITLB TOTAL     ACCESS:   16365974  HIT:   16365974  MISS:          0  HIT %:        100  MISS %:          0   MPKI: 0
ITLB LOAD TRANSLATION ACCESS:   16365974  HIT:   16365974  MISS:          0  HIT %:        100  MISS %:          0   MPKI: 0
ITLB PREFETCH  REQUESTED:          0  ISSUED:          0  USEFUL:          0  USELESS:          0
ITLB USEFUL LOAD PREFETCHES:          0 PREFETCH ISSUED TO LOWER LEVEL:          0  ACCURACY: -nan
ITLB TIMELY PREFETCHES:          0 LATE PREFETCHES: 0 DROPPED PREFETCHES: 0
ITLB PREFETCHES SAME FILL-ORIGIN LEVEL: 0 DIFFERENT FILL-ORIGIN LEVEL: 0
ITLB AVERAGE MISS LATENCY: -nan cycles
ITLB RQ	ACCESS:   16583226	FORWARD:          0	MERGED:     217253	TO_CACHE:   16365973

DTLB TOTAL     ACCESS:   20684014  HIT:   15689213  MISS:    4994801  HIT %:    75.8519  MISS %:    24.1481   MPKI: 49.948
DTLB LOAD TRANSLATION ACCESS:   20684014  HIT:   15689213  MISS:    4994801  HIT %:    75.8519  MISS %:    24.1481   MPKI: 49.948
DTLB PREFETCH  REQUESTED:          0  ISSUED:          0  USEFUL:          0  USELESS:          0
DTLB USEFUL LOAD PREFETCHES:          0 PREFETCH ISSUED TO LOWER LEVEL:          0  ACCURACY: -nan
DTLB TIMELY PREFETCHES:          0 LATE PREFETCHES: 0 DROPPED PREFETCHES: 0
DTLB PREFETCHES SAME FILL-ORIGIN LEVEL: 0 DIFFERENT FILL-ORIGIN LEVEL: 0
DTLB AVERAGE MISS LATENCY: 9.62857 cycles
DTLB RQ	ACCESS:   21725970	FORWARD:          0	MERGED:    1021509	TO_CACHE:   20704461

STLB TOTAL     ACCESS:    4994800  HIT:    4987319  MISS:       7481  HIT %:    99.8502  MISS %:   0.149776   MPKI: 0.07481
STLB LOAD TRANSLATION ACCESS:    4994800  HIT:    4987319  MISS:       7481  HIT %:    99.8502  MISS %:   0.149776   MPKI: 0.07481
STLB PREFETCH  REQUESTED:          0  ISSUED:          0  USEFUL:          0  USELESS:          0
STLB USEFUL LOAD PREFETCHES:          0 PREFETCH ISSUED TO LOWER LEVEL:          0  ACCURACY: -nan
STLB TIMELY PREFETCHES:          0 LATE PREFETCHES: 0 DROPPED PREFETCHES: 0
STLB PREFETCHES SAME FILL-ORIGIN LEVEL: 0 DIFFERENT FILL-ORIGIN LEVEL: 0
STLB AVERAGE MISS LATENCY: 138.133 cycles
STLB RQ	ACCESS:    4994800	FORWARD:          0	MERGED:          0	TO_CACHE:    4994800

STLB Hit, L1D data hit: 0
STLB Hit, L2C data hit: 0
STLB Hit, LLC data hit: 0
STLB Hit, LLC data miss: 0
STLB STLB hints to L2: 0
L1D TOTAL     ACCESS:   21303915  HIT:   13713038  MISS:    7590877  HIT %:    64.3686  MISS %:    35.6314   MPKI: 75.9088
L1D LOAD      ACCESS:   21125850  HIT:   13534973  MISS:    7590877  HIT %:    64.0683  MISS %:    35.9317   MPKI: 75.9088
L1D RFO       ACCESS:     178065  HIT:     178065  MISS:          0  HIT %:        100  MISS %:          0   MPKI: 0
L1D PREFETCH  REQUESTED:          0  ISSUED:          0  USEFUL:          0  USELESS:          0
L1D USEFUL LOAD PREFETCHES:          0 PREFETCH ISSUED TO LOWER LEVEL:          0  ACCURACY: -nan
L1D TIMELY PREFETCHES:          0 LATE PREFETCHES: 0 DROPPED PREFETCHES: 0
L1D PREFETCHES SAME FILL-ORIGIN LEVEL: 0 DIFFERENT FILL-ORIGIN LEVEL: 0
L1D AVERAGE MISS LATENCY: 84.8186 cycles
L1D RQ	ACCESS:   27754115	FORWARD:          0	MERGED:    6202184	TO_CACHE:   21547905
L1D WQ	ACCESS:     178065	FORWARD:       4026	MERGED:          0	TO_CACHE:     178065

L1D UNIQUE REGIONS ACCESSED: 0
L1D REGIONS CONFLICTS: 0
L1D Cross Page Prefetch Requests: 0
L1D Same Page Prefetch Requests: 0
L1D ROI Sum of L1D PQ occupancy: 0
L1D PREFETCHES PUSHED FROM L2C: 0
L1I TOTAL     ACCESS:   16583227  HIT:   16583227  MISS:          0  HIT %:        100  MISS %:          0   MPKI: 0
L1I LOAD      ACCESS:   16583227  HIT:   16583227  MISS:          0  HIT %:        100  MISS %:          0   MPKI: 0
L1I PREFETCH  REQUESTED:          0  ISSUED:          0  USEFUL:          0  USELESS:          0
L1I USEFUL LOAD PREFETCHES:          0 PREFETCH ISSUED TO LOWER LEVEL:          0  ACCURACY: -nan
L1I TIMELY PREFETCHES:          0 LATE PREFETCHES: 0 DROPPED PREFETCHES: 0
L1I PREFETCHES SAME FILL-ORIGIN LEVEL: 0 DIFFERENT FILL-ORIGIN LEVEL: 0
L1I AVERAGE MISS LATENCY: -nan cycles
L1I RQ	ACCESS:   26995396	FORWARD:          0	MERGED:   10412170	TO_CACHE:   16583226

BTB TOTAL     ACCESS:   20268975  HIT:   20268970  MISS:          5  HIT %:        100  MISS %: 2.46682e-05   MPKI: 5e-05
BTB BRANCH_DIRECT_JUMP	ACCESS:          0  HIT:          0  MISS:          0
BTB BRANCH_INDIRECT	ACCESS:          0  HIT:          0  MISS:          0
BTB BRANCH_CONDITIONAL	ACCESS:   20268975  HIT:   20268970  MISS:          5
BTB BRANCH_DIRECT_CALL	ACCESS:          0  HIT:          0  MISS:          0
BTB BRANCH_INDIRECT_CALL	ACCESS:          0  HIT:          0  MISS:          0
BTB BRANCH_RETURN	ACCESS:          0  HIT:          0  MISS:          0
BTB BRANCH_OTHER ACCESS:          0  HIT:          0  MISS:          0

L2C TOTAL     ACCESS:    7739548  HIT:    2448722  MISS:    5290826  HIT %:    31.6391  MISS %:    68.3609   MPKI: 52.9083
L2C LOAD      ACCESS:    7590877  HIT:    2301414  MISS:    5289463  HIT %:    30.3182  MISS %:    69.6818   MPKI: 52.8946
L2C DATA LOAD MPKI: 52.8946
L2C INSTRUCTION LOAD MPKI: 0
L2C WRITEBACK ACCESS:     141190  HIT:     141125  MISS:         65  HIT %:     99.954  MISS %:  0.0460373   MPKI: 0.00065
L2C LOAD TRANSLATION ACCESS:       7481  HIT:       6183  MISS:       1298  HIT %:    82.6494  MISS %:    17.3506   MPKI: 0.01298
L2C PREFETCH  REQUESTED:          0  ISSUED:          0  USEFUL:          0  USELESS:          0
L2C USEFUL LOAD PREFETCHES:          0 PREFETCH ISSUED TO LOWER LEVEL:          0  ACCURACY: -nan
L2C TIMELY PREFETCHES:          0 LATE PREFETCHES: 0 DROPPED PREFETCHES: 0
L2C PREFETCHES SAME FILL-ORIGIN LEVEL: 0 DIFFERENT FILL-ORIGIN LEVEL: 0
L2C AVERAGE MISS LATENCY: 99.9541 cycles
L2C RQ	ACCESS:    7598358	FORWARD:          0	MERGED:          0	TO_CACHE:    7598358
L2C WQ	ACCESS:     141190	FORWARD:          0	MERGED:          0	TO_CACHE:     141190

L2C Instructions Evicting Data 0
L2C Translations Evicting Data 1298
L2C Data Evicting Data 5288165
L2C Instructions Evicting Instructions 0
L2C Translations Evicting Instructions 0
L2C Data Evicting Instructions 0
L2C Instructions Evicting Translations 0
L2C Translations Evicting Translations 0
L2C Data Evicting Translations 1298
L2C Dense regions hint from L2: 0
PSCL5 TOTAL     ACCESS:       7481  HIT:       7481  MISS:          0  HIT %:        100  MISS %:          0   MPKI: 0
PSCL5 LOAD TRANSLATION ACCESS:       7481  HIT:       7481  MISS:          0  HIT %:        100  MISS %:          0   MPKI: 0
PSCL5 PREFETCH  REQUESTED:          0  ISSUED:          0  USEFUL:          0  USELESS:          0
PSCL5 USEFUL LOAD PREFETCHES:          0 PREFETCH ISSUED TO LOWER LEVEL:          0  ACCURACY: -nan
PSCL5 TIMELY PREFETCHES:          0 LATE PREFETCHES: 0 DROPPED PREFETCHES: 0
PSCL5 PREFETCHES SAME FILL-ORIGIN LEVEL: 0 DIFFERENT FILL-ORIGIN LEVEL: 0

PSCL4 TOTAL     ACCESS:       7481  HIT:       7481  MISS:          0  HIT %:        100  MISS %:          0   MPKI: 0
PSCL4 LOAD TRANSLATION ACCESS:       7481  HIT:       7481  MISS:          0  HIT %:        100  MISS %:          0   MPKI: 0
PSCL4 PREFETCH  REQUESTED:          0  ISSUED:          0  USEFUL:          0  USELESS:          0
PSCL4 USEFUL LOAD PREFETCHES:          0 PREFETCH ISSUED TO LOWER LEVEL:          0  ACCURACY: -nan
PSCL4 TIMELY PREFETCHES:          0 LATE PREFETCHES: 0 DROPPED PREFETCHES: 0
PSCL4 PREFETCHES SAME FILL-ORIGIN LEVEL: 0 DIFFERENT FILL-ORIGIN LEVEL: 0

PSCL3 TOTAL     ACCESS:       7481  HIT:       7481  MISS:          0  HIT %:        100  MISS %:          0   MPKI: 0
PSCL3 LOAD TRANSLATION ACCESS:       7481  HIT:       7481  MISS:          0  HIT %:        100  MISS %:          0   MPKI: 0
PSCL3 PREFETCH  REQUESTED:          0  ISSUED:          0  USEFUL:          0  USELESS:          0
PSCL3 USEFUL LOAD PREFETCHES:          0 PREFETCH ISSUED TO LOWER LEVEL:          0  ACCURACY: -nan
PSCL3 TIMELY PREFETCHES:          0 LATE PREFETCHES: 0 DROPPED PREFETCHES: 0
PSCL3 PREFETCHES SAME FILL-ORIGIN LEVEL: 0 DIFFERENT FILL-ORIGIN LEVEL: 0

PSCL2 TOTAL     ACCESS:       7481  HIT:       7466  MISS:         15  HIT %:    99.7995  MISS %:   0.200508   MPKI: 0.00015
PSCL2 LOAD TRANSLATION ACCESS:       7481  HIT:       7466  MISS:         15  HIT %:    99.7995  MISS %:   0.200508   MPKI: 0.00015
PSCL2 PREFETCH  REQUESTED:          0  ISSUED:          0  USEFUL:          0  USELESS:          0
PSCL2 USEFUL LOAD PREFETCHES:          0 PREFETCH ISSUED TO LOWER LEVEL:          0  ACCURACY: -nan
PSCL2 TIMELY PREFETCHES:          0 LATE PREFETCHES: 0 DROPPED PREFETCHES: 0
PSCL2 PREFETCHES SAME FILL-ORIGIN LEVEL: 0 DIFFERENT FILL-ORIGIN LEVEL: 0

LLC TOTAL     ACCESS:    5431723  HIT:    3099192  MISS:    2332531  HIT %:    57.0573  MISS %:    42.9427   MPKI: 23.3253
LLC LOAD      ACCESS:    5289463  HIT:    2958271  MISS:    2331192  HIT %:    55.9276  MISS %:    44.0724   MPKI: 23.3119
LLC WRITEBACK ACCESS:     140962  HIT:     140574  MISS:        388  HIT %:    99.7247  MISS %:   0.275251   MPKI: 0.00388
LLC LOAD TRANSLATION ACCESS:       1298  HIT:        347  MISS:        951  HIT %:    26.7334  MISS %:    73.2666   MPKI: 0.00951
LLC PREFETCH  REQUESTED:          0  ISSUED:          0  USEFUL:          0  USELESS:          0
LLC USEFUL LOAD PREFETCHES:          0 PREFETCH ISSUED TO LOWER LEVEL:          0  ACCURACY: -nan
LLC TIMELY PREFETCHES:          0 LATE PREFETCHES: 0 DROPPED PREFETCHES: 0
LLC PREFETCHES SAME FILL-ORIGIN LEVEL: 0 DIFFERENT FILL-ORIGIN LEVEL: 0
LLC AVERAGE MISS LATENCY: 158.614 cycles
LLC RQ	ACCESS:    5290761	FORWARD:          0	MERGED:          0	TO_CACHE:    5290761
LLC WQ	ACCESS:     140962	FORWARD:          0	MERGED:          0	TO_CACHE:     140962

LLC Dense regions hint to LLC: 0

RAW hits: 26734
Loads Generated: 27780849
Loads sent to L1D: 27754115
Stores Generated: 178065
Stores sent to L1D: 178065
Major fault: 0 Minor fault: 12079
Allocated PAGES: 12079

DRAM Statistics
 CHANNEL 0
 RQ ROW_BUFFER_HIT:     410767  ROW_BUFFER_MISS:    1921372
 DBUS_CONGESTED:        125
 WQ ROW_BUFFER_HIT:      51719  ROW_BUFFER_MISS:      86797  FULL:          0

 AVG_CONGESTED_CYCLE: 4
 All warmup complete: 2
Channel 0 Bank busy for read cycles: 0
Channel 0 Bank busy for write cycles: 0
Channel 0
Rank 0
0banks busy for read cycles: 326459222
0banks busy for write cycles: 124936
1banks busy for read cycles: 185623172
1banks busy for write cycles: 23367960
2banks busy for read cycles: 40755791
2banks busy for write cycles: 1488006
3banks busy for read cycles: 10264487
3banks busy for write cycles: 110380
4banks busy for read cycles: 2200966
4banks busy for write cycles: 8732
5banks busy for read cycles: 347079
5banks busy for write cycles: 462
6banks busy for read cycles: 40684
6banks busy for write cycles: 0
7banks busy for read cycles: 4541
7banks busy for write cycles: 0
8banks busy for read cycles: 188
8banks busy for write cycles: 0

CPU 0 Branch Prediction Accuracy: 87.9754% MPKI: 24.4845 Average ROB Occupancy at Mispredict: 18.5823
Branch types
NOT_BRANCH: 79637752 79.6378%
BRANCH_DIRECT_JUMP: 0 0%
BRANCH_INDIRECT: 0 0%
BRANCH_CONDITIONAL: 20361987 20.362%
BRANCH_DIRECT_CALL: 0 0%
BRANCH_INDIRECT_CALL: 0 0%
BRANCH_RETURN: 0 0%
BRANCH_OTHER: 0 0%

DRAM PAGES: 1048576
Allocated PAGES: 12079
