
*** ChampSim Multicore Out-of-Order Simulator ***

Warmup Instructions: 50000000
Simulation Instructions: 100000000
Number of CPUs: 1
LLC sets: 2048
LLC ways: 16
Off-chip DRAM Size: 4096 MB Channels: 1 Width: 64-bit Data Rate: 6400 MT/s
CPU 0 runs ./traces/GAP/cc-14.trace.gz
.gz
CPU 0 Bimodal branch predictor
BTB has LRU replacement policy
ITLB has LRU replacement policy
DTLB has LRU replacement policy
STLB has LRU replacement policy
L1I has LRU replacement policy
Ideal ISB Prefetching
L1D has LRU replacement policy
L2C has LRU replacement policy
LLC has LRU replacement policy
Heartbeat CPU 0 instructions: 10000001 cycles: 3081843 heartbeat IPC: 3.24481 cumulative IPC: 3.24481 (Simulation time: 0 hr 1 min 49 sec) 
Heartbeat CPU 0 instructions: 20000000 cycles: 6151286 heartbeat IPC: 3.25792 cumulative IPC: 3.25135 (Simulation time: 0 hr 4 min 30 sec) 
Heartbeat CPU 0 instructions: 30000002 cycles: 9230551 heartbeat IPC: 3.24753 cumulative IPC: 3.25008 (Simulation time: 0 hr 7 min 19 sec) 
Heartbeat CPU 0 instructions: 40000000 cycles: 12312710 heartbeat IPC: 3.24448 cumulative IPC: 3.24868 (Simulation time: 0 hr 10 min 13 sec) 
Heartbeat CPU 0 instructions: 50000001 cycles: 15399932 heartbeat IPC: 3.23916 cumulative IPC: 3.24677 (Simulation time: 0 hr 13 min 13 sec) 

Warmup complete CPU 0 instructions: 50000001 cycles: 15399932 (Simulation time: 0 hr 13 min 13 sec) 

Heartbeat CPU 0 instructions: 60000000 cycles: 67689908 heartbeat IPC: 0.191241 cumulative IPC: 0.191241 (Simulation time: 0 hr 16 min 38 sec) 
Heartbeat CPU 0 instructions: 70000001 cycles: 119522882 heartbeat IPC: 0.192927 cumulative IPC: 0.192081 (Simulation time: 0 hr 20 min 4 sec) 
Heartbeat CPU 0 instructions: 80000000 cycles: 172511092 heartbeat IPC: 0.188721 cumulative IPC: 0.190948 (Simulation time: 0 hr 23 min 36 sec) 
Heartbeat CPU 0 instructions: 90000000 cycles: 223619570 heartbeat IPC: 0.195662 cumulative IPC: 0.192105 (Simulation time: 0 hr 27 min 6 sec) 
Heartbeat CPU 0 instructions: 100000000 cycles: 274871847 heartbeat IPC: 0.195113 cumulative IPC: 0.192699 (Simulation time: 0 hr 30 min 40 sec) 
Heartbeat CPU 0 instructions: 110000000 cycles: 327169128 heartbeat IPC: 0.191215 cumulative IPC: 0.19245 (Simulation time: 0 hr 34 min 19 sec) 
Heartbeat CPU 0 instructions: 120000000 cycles: 379909490 heartbeat IPC: 0.189608 cumulative IPC: 0.192039 (Simulation time: 0 hr 37 min 57 sec) 
Heartbeat CPU 0 instructions: 130000000 cycles: 433532872 heartbeat IPC: 0.186486 cumulative IPC: 0.191327 (Simulation time: 0 hr 41 min 41 sec) 
Heartbeat CPU 0 instructions: 140000000 cycles: 485558434 heartbeat IPC: 0.192213 cumulative IPC: 0.191425 (Simulation time: 0 hr 45 min 21 sec) 
Heartbeat CPU 0 instructions: 150000001 cycles: 536583215 heartbeat IPC: 0.195983 cumulative IPC: 0.191871 (Simulation time: 0 hr 49 min 1 sec) 
Finished CPU 0 instructions: 100000000 cycles: 521183283 cumulative IPC: 0.191871 (Simulation time: 0 hr 49 min 1 sec) 

ChampSim completed all CPUs

Region of Interest Statistics

CPU 0 cumulative IPC: 0.191871 instructions: 100000000 cycles: 521183283
ITLB TOTAL     ACCESS:   16051488  HIT:   16051488  MISS:          0  HIT %:        100  MISS %:          0   MPKI: 0
ITLB LOAD TRANSLATION ACCESS:   16051488  HIT:   16051488  MISS:          0  HIT %:        100  MISS %:          0   MPKI: 0
ITLB PREFETCH  REQUESTED:          0  ISSUED:          0  USEFUL:          0  USELESS:          0
ITLB USEFUL LOAD PREFETCHES:          0 PREFETCH ISSUED TO LOWER LEVEL:          0  ACCURACY: -nan
ITLB TIMELY PREFETCHES:          0 LATE PREFETCHES: 0 DROPPED PREFETCHES: 0
ITLB PREFETCHES SAME FILL-ORIGIN LEVEL: 0 DIFFERENT FILL-ORIGIN LEVEL: 0
ITLB AVERAGE MISS LATENCY: -nan cycles
ITLB RQ	ACCESS:   16263126	FORWARD:          0	MERGED:     211639	TO_CACHE:   16051487

DTLB TOTAL     ACCESS:   19666307  HIT:   14869162  MISS:    4797145  HIT %:    75.6073  MISS %:    24.3927   MPKI: 47.9714
DTLB LOAD TRANSLATION ACCESS:   19666307  HIT:   14869162  MISS:    4797145  HIT %:    75.6073  MISS %:    24.3927   MPKI: 47.9714
DTLB PREFETCH  REQUESTED:          0  ISSUED:          0  USEFUL:          0  USELESS:          0
DTLB USEFUL LOAD PREFETCHES:          0 PREFETCH ISSUED TO LOWER LEVEL:          0  ACCURACY: -nan
DTLB TIMELY PREFETCHES:          0 LATE PREFETCHES: 0 DROPPED PREFETCHES: 0
DTLB PREFETCHES SAME FILL-ORIGIN LEVEL: 0 DIFFERENT FILL-ORIGIN LEVEL: 0
DTLB AVERAGE MISS LATENCY: 9.70116 cycles
DTLB RQ	ACCESS:   20883344	FORWARD:          0	MERGED:    1187359	TO_CACHE:   19695985

STLB TOTAL     ACCESS:   11089553  HIT:   11082270  MISS:       7283  HIT %:    99.9343  MISS %:  0.0656744   MPKI: 0.07283
STLB LOAD TRANSLATION ACCESS:    4797145  HIT:    4789862  MISS:       7283  HIT %:    99.8482  MISS %:   0.151819   MPKI: 0.07283
STLB TRANSLATION FROM L1D PREFETCHER ACCESS:    6292408  HIT:    6292408  MISS:          0  HIT %:        100  MISS %:          0   MPKI: 0
STLB PREFETCH  REQUESTED:          0  ISSUED:          0  USEFUL:          0  USELESS:          0
STLB USEFUL LOAD PREFETCHES:          0 PREFETCH ISSUED TO LOWER LEVEL:          0  ACCURACY: -nan
STLB TIMELY PREFETCHES:          0 LATE PREFETCHES: 0 DROPPED PREFETCHES: 0
STLB PREFETCHES SAME FILL-ORIGIN LEVEL: 0 DIFFERENT FILL-ORIGIN LEVEL: 0
STLB AVERAGE MISS LATENCY: 138.789 cycles
STLB RQ	ACCESS:   12125836	FORWARD:          0	MERGED:    1036285	TO_CACHE:   11089551

STLB Hit, L1D data hit: 0
STLB Hit, L2C data hit: 0
STLB Hit, LLC data hit: 0
STLB Hit, LLC data miss: 0
STLB STLB hints to L2: 0
L1D TOTAL     ACCESS:   27670209  HIT:   13270197  MISS:   14400012  HIT %:    47.9584  MISS %:    52.0416   MPKI: 144
L1D LOAD      ACCESS:   20208575  HIT:   12856257  MISS:    7352318  HIT %:    63.6178  MISS %:    36.3822   MPKI: 73.5232
L1D RFO       ACCESS:     177190  HIT:     177190  MISS:          0  HIT %:        100  MISS %:          0   MPKI: 0
L1D PREFETCH  ACCESS:    7284444  HIT:     236750  MISS:    7047694  HIT %:    3.25008  MISS %:    96.7499   MPKI: 70.4769
AGUS PREFETCH L1 MISS: 0
L1D PREFETCH  REQUESTED:   15218779  ISSUED:   14686998  USEFUL:     274659  USELESS:    6773041
L1D USEFUL LOAD PREFETCHES:     274659 PREFETCH ISSUED TO LOWER LEVEL:    7056228  ACCURACY: 3.89243
L1D TIMELY PREFETCHES:     274659 LATE PREFETCHES: 8537 DROPPED PREFETCHES: 0
L1D PREFETCHES SAME FILL-ORIGIN LEVEL: 7056228 DIFFERENT FILL-ORIGIN LEVEL: 0
L1D AVERAGE MISS LATENCY: 71.4289 cycles
L1D RQ	ACCESS:   27400823	FORWARD:          0	MERGED:    6690245	TO_CACHE:   20706154
L1D WQ	ACCESS:     177190	FORWARD:       4424	MERGED:          0	TO_CACHE:     177190
L1D PQ	ACCESS:    7358306	FORWARD:          0	MERGED:      29614	TO_CACHE:    7328692

L1D UNIQUE REGIONS ACCESSED: 0
L1D REGIONS CONFLICTS: 0
L1D Cross Page Prefetch Requests: 9401855
L1D Same Page Prefetch Requests: 1536961
L1D ROI Sum of L1D PQ occupancy: 103539562
L1D PREFETCHES PUSHED FROM L2C: 0
L1I TOTAL     ACCESS:   16263128  HIT:   16263128  MISS:          0  HIT %:        100  MISS %:          0   MPKI: 0
L1I LOAD      ACCESS:   16263128  HIT:   16263128  MISS:          0  HIT %:        100  MISS %:          0   MPKI: 0
L1I PREFETCH  REQUESTED:          0  ISSUED:          0  USEFUL:          0  USELESS:          0
L1I USEFUL LOAD PREFETCHES:          0 PREFETCH ISSUED TO LOWER LEVEL:          0  ACCURACY: -nan
L1I TIMELY PREFETCHES:          0 LATE PREFETCHES: 0 DROPPED PREFETCHES: 0
L1I PREFETCHES SAME FILL-ORIGIN LEVEL: 0 DIFFERENT FILL-ORIGIN LEVEL: 0
L1I AVERAGE MISS LATENCY: -nan cycles
L1I RQ	ACCESS:   26525239	FORWARD:          0	MERGED:   10262113	TO_CACHE:   16263126

BTB TOTAL     ACCESS:   20113455  HIT:   20113450  MISS:          5  HIT %:        100  MISS %: 2.4859e-05   MPKI: 5e-05
BTB BRANCH_DIRECT_JUMP	ACCESS:          0  HIT:          0  MISS:          0
BTB BRANCH_INDIRECT	ACCESS:          0  HIT:          0  MISS:          0
BTB BRANCH_CONDITIONAL	ACCESS:   20113455  HIT:   20113450  MISS:          5
BTB BRANCH_DIRECT_CALL	ACCESS:          0  HIT:          0  MISS:          0
BTB BRANCH_INDIRECT_CALL	ACCESS:          0  HIT:          0  MISS:          0
BTB BRANCH_RETURN	ACCESS:          0  HIT:          0  MISS:          0
BTB BRANCH_OTHER ACCESS:          0  HIT:          0  MISS:          0

L2C TOTAL     ACCESS:   14548641  HIT:    4891817  MISS:    9656824  HIT %:    33.6239  MISS %:    66.3761   MPKI: 96.5682
L2C LOAD      ACCESS:    7343780  HIT:    1993922  MISS:    5349858  HIT %:    27.1512  MISS %:    72.8488   MPKI: 53.4986
L2C DATA LOAD MPKI: 53.4986
L2C INSTRUCTION LOAD MPKI: 0
L2C PREFETCH  ACCESS:    7056228  HIT:    2750796  MISS:    4305432  HIT %:    38.9839  MISS %:    61.0161   MPKI: 43.0543
AGUS PREFETCH L1 MISS: 0
L2C DATA PREFETCH MPKI: 43.0543
L2C INSTRUCTION PREFETCH MPKI: 0
L2C WRITEBACK ACCESS:     141350  HIT:     141139  MISS:        211  HIT %:    99.8507  MISS %:   0.149275   MPKI: 0.00211
L2C LOAD TRANSLATION ACCESS:       7283  HIT:       5960  MISS:       1323  HIT %:    81.8344  MISS %:    18.1656   MPKI: 0.01323
L2C PREFETCH  REQUESTED:          0  ISSUED:          0  USEFUL:     382859  USELESS:    3922450
L2C USEFUL LOAD PREFETCHES:     382859 PREFETCH ISSUED TO LOWER LEVEL:    4305431  ACCURACY: 8.89247
L2C TIMELY PREFETCHES:     382859 LATE PREFETCHES: 0 DROPPED PREFETCHES: 0
L2C PREFETCHES SAME FILL-ORIGIN LEVEL: 0 DIFFERENT FILL-ORIGIN LEVEL: 0
L2C AVERAGE MISS LATENCY: 83.8085 cycles
L2C RQ	ACCESS:    7351063	FORWARD:          0	MERGED:          0	TO_CACHE:    7351063
L2C WQ	ACCESS:     141350	FORWARD:          2	MERGED:          0	TO_CACHE:     141350
L2C PQ	ACCESS:    7056228	FORWARD:          0	MERGED:          0	TO_CACHE:    7056226

L2C Instructions Evicting Data 0
L2C Translations Evicting Data 1323
L2C Data Evicting Data 9653966
L2C Instructions Evicting Instructions 0
L2C Translations Evicting Instructions 0
L2C Data Evicting Instructions 0
L2C Instructions Evicting Translations 0
L2C Translations Evicting Translations 0
L2C Data Evicting Translations 1324
L2C Dense regions hint from L2: 0
PSCL5 TOTAL     ACCESS:       7283  HIT:       7283  MISS:          0  HIT %:        100  MISS %:          0   MPKI: 0
PSCL5 LOAD TRANSLATION ACCESS:       7283  HIT:       7283  MISS:          0  HIT %:        100  MISS %:          0   MPKI: 0
PSCL5 PREFETCH  REQUESTED:          0  ISSUED:          0  USEFUL:          0  USELESS:          0
PSCL5 USEFUL LOAD PREFETCHES:          0 PREFETCH ISSUED TO LOWER LEVEL:          0  ACCURACY: -nan
PSCL5 TIMELY PREFETCHES:          0 LATE PREFETCHES: 0 DROPPED PREFETCHES: 0
PSCL5 PREFETCHES SAME FILL-ORIGIN LEVEL: 0 DIFFERENT FILL-ORIGIN LEVEL: 0

PSCL4 TOTAL     ACCESS:       7283  HIT:       7283  MISS:          0  HIT %:        100  MISS %:          0   MPKI: 0
PSCL4 LOAD TRANSLATION ACCESS:       7283  HIT:       7283  MISS:          0  HIT %:        100  MISS %:          0   MPKI: 0
PSCL4 PREFETCH  REQUESTED:          0  ISSUED:          0  USEFUL:          0  USELESS:          0
PSCL4 USEFUL LOAD PREFETCHES:          0 PREFETCH ISSUED TO LOWER LEVEL:          0  ACCURACY: -nan
PSCL4 TIMELY PREFETCHES:          0 LATE PREFETCHES: 0 DROPPED PREFETCHES: 0
PSCL4 PREFETCHES SAME FILL-ORIGIN LEVEL: 0 DIFFERENT FILL-ORIGIN LEVEL: 0

PSCL3 TOTAL     ACCESS:       7283  HIT:       7283  MISS:          0  HIT %:        100  MISS %:          0   MPKI: 0
PSCL3 LOAD TRANSLATION ACCESS:       7283  HIT:       7283  MISS:          0  HIT %:        100  MISS %:          0   MPKI: 0
PSCL3 PREFETCH  REQUESTED:          0  ISSUED:          0  USEFUL:          0  USELESS:          0
PSCL3 USEFUL LOAD PREFETCHES:          0 PREFETCH ISSUED TO LOWER LEVEL:          0  ACCURACY: -nan
PSCL3 TIMELY PREFETCHES:          0 LATE PREFETCHES: 0 DROPPED PREFETCHES: 0
PSCL3 PREFETCHES SAME FILL-ORIGIN LEVEL: 0 DIFFERENT FILL-ORIGIN LEVEL: 0

PSCL2 TOTAL     ACCESS:       7283  HIT:       7268  MISS:         15  HIT %:     99.794  MISS %:   0.205959   MPKI: 0.00015
PSCL2 LOAD TRANSLATION ACCESS:       7283  HIT:       7268  MISS:         15  HIT %:     99.794  MISS %:   0.205959   MPKI: 0.00015
PSCL2 PREFETCH  REQUESTED:          0  ISSUED:          0  USEFUL:          0  USELESS:          0
PSCL2 USEFUL LOAD PREFETCHES:          0 PREFETCH ISSUED TO LOWER LEVEL:          0  ACCURACY: -nan
PSCL2 TIMELY PREFETCHES:          0 LATE PREFETCHES: 0 DROPPED PREFETCHES: 0
PSCL2 PREFETCHES SAME FILL-ORIGIN LEVEL: 0 DIFFERENT FILL-ORIGIN LEVEL: 0

LLC TOTAL     ACCESS:    9797869  HIT:    6698239  MISS:    3099630  HIT %:    68.3642  MISS %:    31.6358   MPKI: 30.9963
LLC LOAD      ACCESS:    5349858  HIT:    3070940  MISS:    2278918  HIT %:    57.4023  MISS %:    42.5977   MPKI: 22.7892
LLC PREFETCH  ACCESS:    4305431  HIT:    3485792  MISS:     819639  HIT %:    80.9627  MISS %:    19.0373   MPKI: 8.19639
AGUS PREFETCH L1 MISS: 0
LLC WRITEBACK ACCESS:     141257  HIT:     141121  MISS:        136  HIT %:    99.9037  MISS %:  0.0962784   MPKI: 0.00136
LLC LOAD TRANSLATION ACCESS:       1323  HIT:        386  MISS:        937  HIT %:    29.1761  MISS %:    70.8239   MPKI: 0.00937
LLC PREFETCH  REQUESTED:          0  ISSUED:          0  USEFUL:     263925  USELESS:     555673
LLC USEFUL LOAD PREFETCHES:     263925 PREFETCH ISSUED TO LOWER LEVEL:     819638  ACCURACY: 32.2002
LLC TIMELY PREFETCHES:     263925 LATE PREFETCHES: 0 DROPPED PREFETCHES: 0
LLC PREFETCHES SAME FILL-ORIGIN LEVEL: 0 DIFFERENT FILL-ORIGIN LEVEL: 0
LLC AVERAGE MISS LATENCY: 167.54 cycles
LLC RQ	ACCESS:    5351181	FORWARD:          0	MERGED:          0	TO_CACHE:    5351181
LLC WQ	ACCESS:     141257	FORWARD:          1	MERGED:          0	TO_CACHE:     141257
LLC PQ	ACCESS:    4305431	FORWARD:          0	MERGED:          0	TO_CACHE:    4305430

LLC Dense regions hint to LLC: 0

RAW hits: 26910
Loads Generated: 27427733
Loads sent to L1D: 27400823
Stores Generated: 177190
Stores sent to L1D: 177190
Major fault: 0 Minor fault: 11793
Allocated PAGES: 11793
Prefetcher final stats
Training Unit Size: 64
Addr table size: 743106 743106


Triggers: 10967175
No Prediction: 1654981 15.0903
Stream end: 9248553
No translation: 709303271 6467.51
Predictions: 10938816 99.7414


Stream divergence: 2463594 22.4633
Stream divergence -- new stream: 0

DRAM Statistics
 CHANNEL 0
 RQ ROW_BUFFER_HIT:     558307  ROW_BUFFER_MISS:    2541172
 DBUS_CONGESTED:        462
 WQ ROW_BUFFER_HIT:      54253  ROW_BUFFER_MISS:      85205  FULL:          0

 AVG_CONGESTED_CYCLE: 4
 All warmup complete: 2
Channel 0 Bank busy for read cycles: 0
Channel 0 Bank busy for write cycles: 0
Channel 0
Rank 0
0banks busy for read cycles: 244710019
0banks busy for write cycles: 116384
1banks busy for read cycles: 153177195
1banks busy for write cycles: 22970215
2banks busy for read cycles: 56304220
2banks busy for write cycles: 2792787
3banks busy for read cycles: 25364198
3banks busy for write cycles: 390141
4banks busy for read cycles: 10507456
4banks busy for write cycles: 67969
5banks busy for read cycles: 3626638
5banks busy for write cycles: 11960
6banks busy for read cycles: 957258
6banks busy for write cycles: 1591
7banks busy for read cycles: 170212
7banks busy for write cycles: 311
8banks busy for read cycles: 14730
8banks busy for write cycles: 0

CPU 0 Branch Prediction Accuracy: 90.5619% MPKI: 19.0678 Average ROB Occupancy at Mispredict: 25.9272
Branch types
NOT_BRANCH: 79796882 79.7969%
BRANCH_DIRECT_JUMP: 0 0%
BRANCH_INDIRECT: 0 0%
BRANCH_CONDITIONAL: 20202993 20.203%
BRANCH_DIRECT_CALL: 0 0%
BRANCH_INDIRECT_CALL: 0 0%
BRANCH_RETURN: 0 0%
BRANCH_OTHER: 0 0%

DRAM PAGES: 1048576
Allocated PAGES: 11793
