
*** ChampSim Multicore Out-of-Order Simulator ***

Warmup Instructions: 50000000
Simulation Instructions: 100000000
Number of CPUs: 1
LLC sets: 2048
LLC ways: 16
Off-chip DRAM Size: 4096 MB Channels: 1 Width: 64-bit Data Rate: 6400 MT/s
CPU 0 runs ./traces/GAP/cc-14.trace.gz
.gz
CPU 0 Bimodal branch predictor
BTB has LRU replacement policy
ITLB has LRU replacement policy
DTLB has LRU replacement policy
STLB has LRU replacement policy
L1I has LRU replacement policy
L1D has LRU replacement policy
L2C has LRU replacement policy
LLC has LRU replacement policy
Heartbeat CPU 0 instructions: 10000001 cycles: 3086913 heartbeat IPC: 3.23948 cumulative IPC: 3.23948 (Simulation time: 0 hr 0 min 25 sec) 
Heartbeat CPU 0 instructions: 20000000 cycles: 6164358 heartbeat IPC: 3.24945 cumulative IPC: 3.24446 (Simulation time: 0 hr 0 min 52 sec) 
Heartbeat CPU 0 instructions: 30000003 cycles: 9250317 heartbeat IPC: 3.24048 cumulative IPC: 3.24313 (Simulation time: 0 hr 1 min 19 sec) 
Heartbeat CPU 0 instructions: 40000000 cycles: 12340127 heartbeat IPC: 3.23644 cumulative IPC: 3.24146 (Simulation time: 0 hr 1 min 46 sec) 
Heartbeat CPU 0 instructions: 50000000 cycles: 15435070 heartbeat IPC: 3.23108 cumulative IPC: 3.23938 (Simulation time: 0 hr 2 min 13 sec) 

Warmup complete CPU 0 instructions: 50000004 cycles: 15435071 (Simulation time: 0 hr 2 min 13 sec) 

Heartbeat CPU 0 instructions: 60000000 cycles: 67363222 heartbeat IPC: 0.192574 cumulative IPC: 0.192574 (Simulation time: 0 hr 3 min 0 sec) 
Heartbeat CPU 0 instructions: 70000001 cycles: 118854394 heartbeat IPC: 0.194208 cumulative IPC: 0.193387 (Simulation time: 0 hr 3 min 47 sec) 
Heartbeat CPU 0 instructions: 80000000 cycles: 171490993 heartbeat IPC: 0.189982 cumulative IPC: 0.192239 (Simulation time: 0 hr 4 min 34 sec) 
Heartbeat CPU 0 instructions: 90000000 cycles: 222179531 heartbeat IPC: 0.197283 cumulative IPC: 0.193476 (Simulation time: 0 hr 5 min 21 sec) 
Heartbeat CPU 0 instructions: 100000000 cycles: 273036229 heartbeat IPC: 0.196631 cumulative IPC: 0.194098 (Simulation time: 0 hr 6 min 8 sec) 
Heartbeat CPU 0 instructions: 110000000 cycles: 324900256 heartbeat IPC: 0.192812 cumulative IPC: 0.193883 (Simulation time: 0 hr 6 min 55 sec) 
Heartbeat CPU 0 instructions: 120000000 cycles: 377279201 heartbeat IPC: 0.190916 cumulative IPC: 0.193453 (Simulation time: 0 hr 7 min 42 sec) 
Heartbeat CPU 0 instructions: 130000000 cycles: 430598082 heartbeat IPC: 0.187551 cumulative IPC: 0.192695 (Simulation time: 0 hr 8 min 29 sec) 
Heartbeat CPU 0 instructions: 140000000 cycles: 482187870 heartbeat IPC: 0.193837 cumulative IPC: 0.192822 (Simulation time: 0 hr 9 min 17 sec) 
Heartbeat CPU 0 instructions: 150000001 cycles: 532732990 heartbeat IPC: 0.197843 cumulative IPC: 0.193312 (Simulation time: 0 hr 10 min 4 sec) 
Finished CPU 0 instructions: 100000001 cycles: 517297920 cumulative IPC: 0.193312 (Simulation time: 0 hr 10 min 4 sec) 

ChampSim completed all CPUs

Region of Interest Statistics

CPU 0 cumulative IPC: 0.193312 instructions: 100000001 cycles: 517297920
ITLB TOTAL     ACCESS:   16043712  HIT:   16043712  MISS:          0  HIT %:        100  MISS %:          0   MPKI: 0
ITLB LOAD TRANSLATION ACCESS:   16043712  HIT:   16043712  MISS:          0  HIT %:        100  MISS %:          0   MPKI: 0
ITLB PREFETCH  REQUESTED:          0  ISSUED:          0  USEFUL:          0  USELESS:          0
ITLB USEFUL LOAD PREFETCHES:          0 PREFETCH ISSUED TO LOWER LEVEL:          0  ACCURACY: -nan
ITLB TIMELY PREFETCHES:          0 LATE PREFETCHES: 0 DROPPED PREFETCHES: 0
ITLB PREFETCHES SAME FILL-ORIGIN LEVEL: 0 DIFFERENT FILL-ORIGIN LEVEL: 0
ITLB AVERAGE MISS LATENCY: -nan cycles
ITLB RQ	ACCESS:   16255350	FORWARD:          0	MERGED:     211639	TO_CACHE:   16043711

DTLB TOTAL     ACCESS:   19655233  HIT:   14858136  MISS:    4797097  HIT %:    75.5938  MISS %:    24.4062   MPKI: 47.971
DTLB LOAD TRANSLATION ACCESS:   19655233  HIT:   14858136  MISS:    4797097  HIT %:    75.5938  MISS %:    24.4062   MPKI: 47.971
DTLB PREFETCH  REQUESTED:          0  ISSUED:          0  USEFUL:          0  USELESS:          0
DTLB USEFUL LOAD PREFETCHES:          0 PREFETCH ISSUED TO LOWER LEVEL:          0  ACCURACY: -nan
DTLB TIMELY PREFETCHES:          0 LATE PREFETCHES: 0 DROPPED PREFETCHES: 0
DTLB PREFETCHES SAME FILL-ORIGIN LEVEL: 0 DIFFERENT FILL-ORIGIN LEVEL: 0
DTLB AVERAGE MISS LATENCY: 9.71874 cycles
DTLB RQ	ACCESS:   20873555	FORWARD:          0	MERGED:    1188777	TO_CACHE:   19684778

STLB TOTAL     ACCESS:    4797097  HIT:    4789814  MISS:       7283  HIT %:    99.8482  MISS %:   0.151821   MPKI: 0.07283
STLB LOAD TRANSLATION ACCESS:    4797097  HIT:    4789814  MISS:       7283  HIT %:    99.8482  MISS %:   0.151821   MPKI: 0.07283
STLB PREFETCH  REQUESTED:          0  ISSUED:          0  USEFUL:          0  USELESS:          0
STLB USEFUL LOAD PREFETCHES:          0 PREFETCH ISSUED TO LOWER LEVEL:          0  ACCURACY: -nan
STLB TIMELY PREFETCHES:          0 LATE PREFETCHES: 0 DROPPED PREFETCHES: 0
STLB PREFETCHES SAME FILL-ORIGIN LEVEL: 0 DIFFERENT FILL-ORIGIN LEVEL: 0
STLB AVERAGE MISS LATENCY: 138.219 cycles
STLB RQ	ACCESS:    4797097	FORWARD:          0	MERGED:          0	TO_CACHE:    4797097

STLB Hit, L1D data hit: 0
STLB Hit, L2C data hit: 0
STLB Hit, LLC data hit: 0
STLB Hit, LLC data miss: 0
STLB STLB hints to L2: 0
L1D TOTAL     ACCESS:   20376732  HIT:   12978500  MISS:    7398232  HIT %:    63.6927  MISS %:    36.3073   MPKI: 73.9823
L1D LOAD      ACCESS:   20199542  HIT:   12801310  MISS:    7398232  HIT %:    63.3743  MISS %:    36.6257   MPKI: 73.9823
L1D RFO       ACCESS:     177190  HIT:     177190  MISS:          0  HIT %:        100  MISS %:          0   MPKI: 0
L1D PREFETCH  REQUESTED:          0  ISSUED:          0  USEFUL:          0  USELESS:          0
L1D USEFUL LOAD PREFETCHES:          0 PREFETCH ISSUED TO LOWER LEVEL:          0  ACCURACY: -nan
L1D TIMELY PREFETCHES:          0 LATE PREFETCHES: 0 DROPPED PREFETCHES: 0
L1D PREFETCHES SAME FILL-ORIGIN LEVEL: 0 DIFFERENT FILL-ORIGIN LEVEL: 0
L1D AVERAGE MISS LATENCY: 85.2659 cycles
L1D RQ	ACCESS:   27400821	FORWARD:          0	MERGED:    6700031	TO_CACHE:   20696365
L1D WQ	ACCESS:     177190	FORWARD:       4425	MERGED:          0	TO_CACHE:     177190

L1D UNIQUE REGIONS ACCESSED: 0
L1D REGIONS CONFLICTS: 0
L1D Cross Page Prefetch Requests: 0
L1D Same Page Prefetch Requests: 0
L1D ROI Sum of L1D PQ occupancy: 0
L1D PREFETCHES PUSHED FROM L2C: 0
L1I TOTAL     ACCESS:   16255352  HIT:   16255352  MISS:          0  HIT %:        100  MISS %:          0   MPKI: 0
L1I LOAD      ACCESS:   16255352  HIT:   16255352  MISS:          0  HIT %:        100  MISS %:          0   MPKI: 0
L1I PREFETCH  REQUESTED:          0  ISSUED:          0  USEFUL:          0  USELESS:          0
L1I USEFUL LOAD PREFETCHES:          0 PREFETCH ISSUED TO LOWER LEVEL:          0  ACCURACY: -nan
L1I TIMELY PREFETCHES:          0 LATE PREFETCHES: 0 DROPPED PREFETCHES: 0
L1I PREFETCHES SAME FILL-ORIGIN LEVEL: 0 DIFFERENT FILL-ORIGIN LEVEL: 0
L1I AVERAGE MISS LATENCY: -nan cycles
L1I RQ	ACCESS:   26518813	FORWARD:          0	MERGED:   10263463	TO_CACHE:   16255350

BTB TOTAL     ACCESS:   20113455  HIT:   20113450  MISS:          5  HIT %:        100  MISS %: 2.4859e-05   MPKI: 5e-05
BTB BRANCH_DIRECT_JUMP	ACCESS:          0  HIT:          0  MISS:          0
BTB BRANCH_INDIRECT	ACCESS:          0  HIT:          0  MISS:          0
BTB BRANCH_CONDITIONAL	ACCESS:   20113455  HIT:   20113450  MISS:          5
BTB BRANCH_DIRECT_CALL	ACCESS:          0  HIT:          0  MISS:          0
BTB BRANCH_INDIRECT_CALL	ACCESS:          0  HIT:          0  MISS:          0
BTB BRANCH_RETURN	ACCESS:          0  HIT:          0  MISS:          0
BTB BRANCH_OTHER ACCESS:          0  HIT:          0  MISS:          0

L2C TOTAL     ACCESS:    7546869  HIT:    2366154  MISS:    5180715  HIT %:    31.3528  MISS %:    68.6472   MPKI: 51.8071
L2C LOAD      ACCESS:    7398231  HIT:    2218853  MISS:    5179378  HIT %:    29.9917  MISS %:    70.0083   MPKI: 51.7938
L2C DATA LOAD MPKI: 51.7938
L2C INSTRUCTION LOAD MPKI: 0
L2C WRITEBACK ACCESS:     141355  HIT:     141285  MISS:         70  HIT %:    99.9505  MISS %:  0.0495207   MPKI: 0.0007
L2C LOAD TRANSLATION ACCESS:       7283  HIT:       6016  MISS:       1267  HIT %:    82.6033  MISS %:    17.3967   MPKI: 0.01267
L2C PREFETCH  REQUESTED:          0  ISSUED:          0  USEFUL:          0  USELESS:          0
L2C USEFUL LOAD PREFETCHES:          0 PREFETCH ISSUED TO LOWER LEVEL:          0  ACCURACY: -nan
L2C TIMELY PREFETCHES:          0 LATE PREFETCHES: 0 DROPPED PREFETCHES: 0
L2C PREFETCHES SAME FILL-ORIGIN LEVEL: 0 DIFFERENT FILL-ORIGIN LEVEL: 0
L2C AVERAGE MISS LATENCY: 100.058 cycles
L2C RQ	ACCESS:    7405514	FORWARD:          0	MERGED:          0	TO_CACHE:    7405514
L2C WQ	ACCESS:     141355	FORWARD:          0	MERGED:          0	TO_CACHE:     141355

L2C Instructions Evicting Data 0
L2C Translations Evicting Data 1267
L2C Data Evicting Data 5178110
L2C Instructions Evicting Instructions 0
L2C Translations Evicting Instructions 0
L2C Data Evicting Instructions 0
L2C Instructions Evicting Translations 0
L2C Translations Evicting Translations 0
L2C Data Evicting Translations 1268
L2C Dense regions hint from L2: 0
PSCL5 TOTAL     ACCESS:       7283  HIT:       7283  MISS:          0  HIT %:        100  MISS %:          0   MPKI: 0
PSCL5 LOAD TRANSLATION ACCESS:       7283  HIT:       7283  MISS:          0  HIT %:        100  MISS %:          0   MPKI: 0
PSCL5 PREFETCH  REQUESTED:          0  ISSUED:          0  USEFUL:          0  USELESS:          0
PSCL5 USEFUL LOAD PREFETCHES:          0 PREFETCH ISSUED TO LOWER LEVEL:          0  ACCURACY: -nan
PSCL5 TIMELY PREFETCHES:          0 LATE PREFETCHES: 0 DROPPED PREFETCHES: 0
PSCL5 PREFETCHES SAME FILL-ORIGIN LEVEL: 0 DIFFERENT FILL-ORIGIN LEVEL: 0

PSCL4 TOTAL     ACCESS:       7283  HIT:       7283  MISS:          0  HIT %:        100  MISS %:          0   MPKI: 0
PSCL4 LOAD TRANSLATION ACCESS:       7283  HIT:       7283  MISS:          0  HIT %:        100  MISS %:          0   MPKI: 0
PSCL4 PREFETCH  REQUESTED:          0  ISSUED:          0  USEFUL:          0  USELESS:          0
PSCL4 USEFUL LOAD PREFETCHES:          0 PREFETCH ISSUED TO LOWER LEVEL:          0  ACCURACY: -nan
PSCL4 TIMELY PREFETCHES:          0 LATE PREFETCHES: 0 DROPPED PREFETCHES: 0
PSCL4 PREFETCHES SAME FILL-ORIGIN LEVEL: 0 DIFFERENT FILL-ORIGIN LEVEL: 0

PSCL3 TOTAL     ACCESS:       7283  HIT:       7283  MISS:          0  HIT %:        100  MISS %:          0   MPKI: 0
PSCL3 LOAD TRANSLATION ACCESS:       7283  HIT:       7283  MISS:          0  HIT %:        100  MISS %:          0   MPKI: 0
PSCL3 PREFETCH  REQUESTED:          0  ISSUED:          0  USEFUL:          0  USELESS:          0
PSCL3 USEFUL LOAD PREFETCHES:          0 PREFETCH ISSUED TO LOWER LEVEL:          0  ACCURACY: -nan
PSCL3 TIMELY PREFETCHES:          0 LATE PREFETCHES: 0 DROPPED PREFETCHES: 0
PSCL3 PREFETCHES SAME FILL-ORIGIN LEVEL: 0 DIFFERENT FILL-ORIGIN LEVEL: 0

PSCL2 TOTAL     ACCESS:       7283  HIT:       7268  MISS:         15  HIT %:     99.794  MISS %:   0.205959   MPKI: 0.00015
PSCL2 LOAD TRANSLATION ACCESS:       7283  HIT:       7268  MISS:         15  HIT %:     99.794  MISS %:   0.205959   MPKI: 0.00015
PSCL2 PREFETCH  REQUESTED:          0  ISSUED:          0  USEFUL:          0  USELESS:          0
PSCL2 USEFUL LOAD PREFETCHES:          0 PREFETCH ISSUED TO LOWER LEVEL:          0  ACCURACY: -nan
PSCL2 TIMELY PREFETCHES:          0 LATE PREFETCHES: 0 DROPPED PREFETCHES: 0
PSCL2 PREFETCHES SAME FILL-ORIGIN LEVEL: 0 DIFFERENT FILL-ORIGIN LEVEL: 0

LLC TOTAL     ACCESS:    5321865  HIT:    3050690  MISS:    2271175  HIT %:    57.3237  MISS %:    42.6763   MPKI: 22.7117
LLC LOAD      ACCESS:    5179378  HIT:    2909517  MISS:    2269861  HIT %:     56.175  MISS %:     43.825   MPKI: 22.6986
LLC WRITEBACK ACCESS:     141220  HIT:     140835  MISS:        385  HIT %:    99.7274  MISS %:   0.272624   MPKI: 0.00385
LLC LOAD TRANSLATION ACCESS:       1267  HIT:        338  MISS:        929  HIT %:    26.6772  MISS %:    73.3228   MPKI: 0.00929
LLC PREFETCH  REQUESTED:          0  ISSUED:          0  USEFUL:          0  USELESS:          0
LLC USEFUL LOAD PREFETCHES:          0 PREFETCH ISSUED TO LOWER LEVEL:          0  ACCURACY: -nan
LLC TIMELY PREFETCHES:          0 LATE PREFETCHES: 0 DROPPED PREFETCHES: 0
LLC PREFETCHES SAME FILL-ORIGIN LEVEL: 0 DIFFERENT FILL-ORIGIN LEVEL: 0
LLC AVERAGE MISS LATENCY: 159.731 cycles
LLC RQ	ACCESS:    5180645	FORWARD:          0	MERGED:          0	TO_CACHE:    5180645
LLC WQ	ACCESS:     141220	FORWARD:          0	MERGED:          0	TO_CACHE:     141220

LLC Dense regions hint to LLC: 0

RAW hits: 26910
Loads Generated: 27427731
Loads sent to L1D: 27400821
Stores Generated: 177190
Stores sent to L1D: 177190
Major fault: 0 Minor fault: 11793
Allocated PAGES: 11793

DRAM Statistics
 CHANNEL 0
 RQ ROW_BUFFER_HIT:     405413  ROW_BUFFER_MISS:    1865370
 DBUS_CONGESTED:        180
 WQ ROW_BUFFER_HIT:      55471  ROW_BUFFER_MISS:      83282  FULL:          0

 AVG_CONGESTED_CYCLE: 4
 All warmup complete: 2
Channel 0 Bank busy for read cycles: 0
Channel 0 Bank busy for write cycles: 0
Channel 0
Rank 0
0banks busy for read cycles: 270016695
0banks busy for write cycles: 121546
1banks busy for read cycles: 162815553
1banks busy for write cycles: 23418728
2banks busy for read cycles: 43005285
2banks busy for write cycles: 1923179
3banks busy for read cycles: 12525940
3banks busy for write cycles: 161901
4banks busy for read cycles: 2839962
4banks busy for write cycles: 13897
5banks busy for read cycles: 417102
5banks busy for write cycles: 481
6banks busy for read cycles: 35767
6banks busy for write cycles: 0
7banks busy for read cycles: 1847
7banks busy for write cycles: 0
8banks busy for read cycles: 38
8banks busy for write cycles: 0

CPU 0 Branch Prediction Accuracy: 90.5619% MPKI: 19.0678 Average ROB Occupancy at Mispredict: 25.9171
Branch types
NOT_BRANCH: 79796882 79.7969%
BRANCH_DIRECT_JUMP: 0 0%
BRANCH_INDIRECT: 0 0%
BRANCH_CONDITIONAL: 20202993 20.203%
BRANCH_DIRECT_CALL: 0 0%
BRANCH_INDIRECT_CALL: 0 0%
BRANCH_RETURN: 0 0%
BRANCH_OTHER: 0 0%

DRAM PAGES: 1048576
Allocated PAGES: 11793
