
*** ChampSim Multicore Out-of-Order Simulator ***

Warmup Instructions: 50000000
Simulation Instructions: 100000000
Number of CPUs: 1
LLC sets: 2048
LLC ways: 16
Off-chip DRAM Size: 4096 MB Channels: 1 Width: 64-bit Data Rate: 6400 MT/s
CPU 0 runs ./traces/GAP/cc-5.trace.gz
.gz
CPU 0 Bimodal branch predictor
BTB has LRU replacement policy
ITLB has LRU replacement policy
DTLB has LRU replacement policy
STLB has LRU replacement policy
L1I has LRU replacement policy
Ideal ISB Prefetching
L1D has LRU replacement policy
L2C has LRU replacement policy
LLC has LRU replacement policy
Heartbeat CPU 0 instructions: 10000003 cycles: 3082616 heartbeat IPC: 3.244 cumulative IPC: 3.244 (Simulation time: 0 hr 1 min 54 sec) 
Heartbeat CPU 0 instructions: 20000000 cycles: 6141740 heartbeat IPC: 3.26891 cumulative IPC: 3.25641 (Simulation time: 0 hr 4 min 35 sec) 
Heartbeat CPU 0 instructions: 30000000 cycles: 9211268 heartbeat IPC: 3.25783 cumulative IPC: 3.25688 (Simulation time: 0 hr 7 min 22 sec) 
Heartbeat CPU 0 instructions: 40000000 cycles: 12284560 heartbeat IPC: 3.25384 cumulative IPC: 3.25612 (Simulation time: 0 hr 10 min 13 sec) 
Heartbeat CPU 0 instructions: 50000000 cycles: 15358343 heartbeat IPC: 3.25332 cumulative IPC: 3.25556 (Simulation time: 0 hr 13 min 8 sec) 

Warmup complete CPU 0 instructions: 50000004 cycles: 15358344 (Simulation time: 0 hr 13 min 8 sec) 

Heartbeat CPU 0 instructions: 60000000 cycles: 63729612 heartbeat IPC: 0.206734 cumulative IPC: 0.206734 (Simulation time: 0 hr 16 min 34 sec) 
Heartbeat CPU 0 instructions: 70000002 cycles: 110135222 heartbeat IPC: 0.215491 cumulative IPC: 0.211022 (Simulation time: 0 hr 20 min 1 sec) 
Heartbeat CPU 0 instructions: 80000000 cycles: 156912079 heartbeat IPC: 0.213781 cumulative IPC: 0.211934 (Simulation time: 0 hr 23 min 32 sec) 
Heartbeat CPU 0 instructions: 90000000 cycles: 204496538 heartbeat IPC: 0.210153 cumulative IPC: 0.211486 (Simulation time: 0 hr 27 min 10 sec) 
Heartbeat CPU 0 instructions: 100000000 cycles: 250745304 heartbeat IPC: 0.216222 cumulative IPC: 0.212416 (Simulation time: 0 hr 30 min 45 sec) 
Heartbeat CPU 0 instructions: 110000000 cycles: 297318752 heartbeat IPC: 0.214715 cumulative IPC: 0.212796 (Simulation time: 0 hr 34 min 20 sec) 
Heartbeat CPU 0 instructions: 120000000 cycles: 343874485 heartbeat IPC: 0.214796 cumulative IPC: 0.213079 (Simulation time: 0 hr 37 min 55 sec) 
Heartbeat CPU 0 instructions: 130000003 cycles: 388088404 heartbeat IPC: 0.226173 cumulative IPC: 0.214633 (Simulation time: 0 hr 41 min 24 sec) 
Heartbeat CPU 0 instructions: 140000000 cycles: 434409091 heartbeat IPC: 0.215886 cumulative IPC: 0.214771 (Simulation time: 0 hr 45 min 6 sec) 
Heartbeat CPU 0 instructions: 150000000 cycles: 480317741 heartbeat IPC: 0.217824 cumulative IPC: 0.215073 (Simulation time: 0 hr 48 min 51 sec) 
Finished CPU 0 instructions: 100000000 cycles: 464959435 cumulative IPC: 0.215073 (Simulation time: 0 hr 48 min 51 sec) 

ChampSim completed all CPUs

Region of Interest Statistics

CPU 0 cumulative IPC: 0.215073 instructions: 100000000 cycles: 464959435
ITLB TOTAL     ACCESS:   15675554  HIT:   15675554  MISS:          0  HIT %:        100  MISS %:          0   MPKI: 0
ITLB LOAD TRANSLATION ACCESS:   15675554  HIT:   15675554  MISS:          0  HIT %:        100  MISS %:          0   MPKI: 0
ITLB PREFETCH  REQUESTED:          0  ISSUED:          0  USEFUL:          0  USELESS:          0
ITLB USEFUL LOAD PREFETCHES:          0 PREFETCH ISSUED TO LOWER LEVEL:          0  ACCURACY: -nan
ITLB TIMELY PREFETCHES:          0 LATE PREFETCHES: 0 DROPPED PREFETCHES: 0
ITLB PREFETCHES SAME FILL-ORIGIN LEVEL: 0 DIFFERENT FILL-ORIGIN LEVEL: 0
ITLB AVERAGE MISS LATENCY: -nan cycles
ITLB RQ	ACCESS:   15887145	FORWARD:          0	MERGED:     211592	TO_CACHE:   15675553

DTLB TOTAL     ACCESS:   19004581  HIT:   14253721  MISS:    4750860  HIT %:    75.0015  MISS %:    24.9985   MPKI: 47.5086
DTLB LOAD TRANSLATION ACCESS:   19004581  HIT:   14253721  MISS:    4750860  HIT %:    75.0015  MISS %:    24.9985   MPKI: 47.5086
DTLB PREFETCH  REQUESTED:          0  ISSUED:          0  USEFUL:          0  USELESS:          0
DTLB USEFUL LOAD PREFETCHES:          0 PREFETCH ISSUED TO LOWER LEVEL:          0  ACCURACY: -nan
DTLB TIMELY PREFETCHES:          0 LATE PREFETCHES: 0 DROPPED PREFETCHES: 0
DTLB PREFETCHES SAME FILL-ORIGIN LEVEL: 0 DIFFERENT FILL-ORIGIN LEVEL: 0
DTLB AVERAGE MISS LATENCY: 9.75455 cycles
DTLB RQ	ACCESS:   20258287	FORWARD:          0	MERGED:    1222733	TO_CACHE:   19035554

STLB TOTAL     ACCESS:   10922632  HIT:   10915525  MISS:       7107  HIT %:    99.9349  MISS %:  0.0650667   MPKI: 0.07107
STLB LOAD TRANSLATION ACCESS:    4750860  HIT:    4743753  MISS:       7107  HIT %:    99.8504  MISS %:   0.149594   MPKI: 0.07107
STLB TRANSLATION FROM L1D PREFETCHER ACCESS:    6171772  HIT:    6171772  MISS:          0  HIT %:        100  MISS %:          0   MPKI: 0
STLB PREFETCH  REQUESTED:          0  ISSUED:          0  USEFUL:          0  USELESS:          0
STLB USEFUL LOAD PREFETCHES:          0 PREFETCH ISSUED TO LOWER LEVEL:          0  ACCURACY: -nan
STLB TIMELY PREFETCHES:          0 LATE PREFETCHES: 0 DROPPED PREFETCHES: 0
STLB PREFETCHES SAME FILL-ORIGIN LEVEL: 0 DIFFERENT FILL-ORIGIN LEVEL: 0
STLB AVERAGE MISS LATENCY: 138.965 cycles
STLB RQ	ACCESS:   11929082	FORWARD:          0	MERGED:    1006449	TO_CACHE:   10922633

STLB Hit, L1D data hit: 0
STLB Hit, L2C data hit: 0
STLB Hit, LLC data hit: 0
STLB Hit, LLC data miss: 0
STLB STLB hints to L2: 0
L1D TOTAL     ACCESS:   26840252  HIT:   12722619  MISS:   14117633  HIT %:    47.4013  MISS %:    52.5987   MPKI: 141.176
L1D LOAD      ACCESS:   19529881  HIT:   12262840  MISS:    7267041  HIT %:    62.7901  MISS %:    37.2099   MPKI: 72.6704
L1D RFO       ACCESS:     177901  HIT:     177901  MISS:          0  HIT %:        100  MISS %:          0   MPKI: 0
L1D PREFETCH  ACCESS:    7132470  HIT:     281878  MISS:    6850592  HIT %:    3.95204  MISS %:     96.048   MPKI: 68.5059
AGUS PREFETCH L1 MISS: 0
L1D PREFETCH  REQUESTED:   14992405  ISSUED:   14386144  USEFUL:     269628  USELESS:    6580978
L1D USEFUL LOAD PREFETCHES:     269628 PREFETCH ISSUED TO LOWER LEVEL:    6859130  ACCURACY: 3.93094
L1D TIMELY PREFETCHES:     269628 LATE PREFETCHES: 8539 DROPPED PREFETCHES: 0
L1D PREFETCHES SAME FILL-ORIGIN LEVEL: 6859130 DIFFERENT FILL-ORIGIN LEVEL: 0
L1D AVERAGE MISS LATENCY: 71.4075 cycles
L1D RQ	ACCESS:   27071491	FORWARD:          0	MERGED:    6986039	TO_CACHE:   20080386
L1D WQ	ACCESS:     177901	FORWARD:       5066	MERGED:          0	TO_CACHE:     177901
L1D PQ	ACCESS:    7207923	FORWARD:          0	MERGED:      29702	TO_CACHE:    7178221

L1D UNIQUE REGIONS ACCESSED: 0
L1D REGIONS CONFLICTS: 0
L1D Cross Page Prefetch Requests: 9230797
L1D Same Page Prefetch Requests: 1501024
L1D ROI Sum of L1D PQ occupancy: 101668806
L1D PREFETCHES PUSHED FROM L2C: 0
L1I TOTAL     ACCESS:   15887144  HIT:   15887144  MISS:          0  HIT %:        100  MISS %:          0   MPKI: 0
L1I LOAD      ACCESS:   15887144  HIT:   15887144  MISS:          0  HIT %:        100  MISS %:          0   MPKI: 0
L1I PREFETCH  REQUESTED:          0  ISSUED:          0  USEFUL:          0  USELESS:          0
L1I USEFUL LOAD PREFETCHES:          0 PREFETCH ISSUED TO LOWER LEVEL:          0  ACCURACY: -nan
L1I TIMELY PREFETCHES:          0 LATE PREFETCHES: 0 DROPPED PREFETCHES: 0
L1I PREFETCHES SAME FILL-ORIGIN LEVEL: 0 DIFFERENT FILL-ORIGIN LEVEL: 0
L1I AVERAGE MISS LATENCY: -nan cycles
L1I RQ	ACCESS:   26191733	FORWARD:          0	MERGED:   10304588	TO_CACHE:   15887145

BTB TOTAL     ACCESS:   19963841  HIT:   19963836  MISS:          5  HIT %:        100  MISS %: 2.50453e-05   MPKI: 5e-05
BTB BRANCH_DIRECT_JUMP	ACCESS:          0  HIT:          0  MISS:          0
BTB BRANCH_INDIRECT	ACCESS:          0  HIT:          0  MISS:          0
BTB BRANCH_CONDITIONAL	ACCESS:   19963841  HIT:   19963836  MISS:          5
BTB BRANCH_DIRECT_CALL	ACCESS:          0  HIT:          0  MISS:          0
BTB BRANCH_INDIRECT_CALL	ACCESS:          0  HIT:          0  MISS:          0
BTB BRANCH_RETURN	ACCESS:          0  HIT:          0  MISS:          0
BTB BRANCH_OTHER ACCESS:          0  HIT:          0  MISS:          0

L2C TOTAL     ACCESS:   14266648  HIT:    4928814  MISS:    9337834  HIT %:    34.5478  MISS %:    65.4522   MPKI: 93.3783
L2C LOAD      ACCESS:    7258501  HIT:    2058699  MISS:    5199802  HIT %:    28.3626  MISS %:    71.6374   MPKI: 51.998
L2C DATA LOAD MPKI: 51.998
L2C INSTRUCTION LOAD MPKI: 0
L2C PREFETCH  ACCESS:    6859131  HIT:    2722605  MISS:    4136526  HIT %:    39.6931  MISS %:    60.3069   MPKI: 41.3653
AGUS PREFETCH L1 MISS: 0
L2C DATA PREFETCH MPKI: 41.3653
L2C INSTRUCTION PREFETCH MPKI: 0
L2C WRITEBACK ACCESS:     141909  HIT:     141700  MISS:        209  HIT %:    99.8527  MISS %:   0.147277   MPKI: 0.00209
L2C LOAD TRANSLATION ACCESS:       7107  HIT:       5810  MISS:       1297  HIT %:    81.7504  MISS %:    18.2496   MPKI: 0.01297
L2C PREFETCH  REQUESTED:          0  ISSUED:          0  USEFUL:     375045  USELESS:    3761587
L2C USEFUL LOAD PREFETCHES:     375045 PREFETCH ISSUED TO LOWER LEVEL:    4136525  ACCURACY: 9.06667
L2C TIMELY PREFETCHES:     375045 LATE PREFETCHES: 0 DROPPED PREFETCHES: 0
L2C PREFETCHES SAME FILL-ORIGIN LEVEL: 0 DIFFERENT FILL-ORIGIN LEVEL: 0
L2C AVERAGE MISS LATENCY: 84.9125 cycles
L2C RQ	ACCESS:    7265609	FORWARD:          0	MERGED:          0	TO_CACHE:    7265609
L2C WQ	ACCESS:     141909	FORWARD:          0	MERGED:          0	TO_CACHE:     141909
L2C PQ	ACCESS:    6859130	FORWARD:          0	MERGED:          0	TO_CACHE:    6859130

L2C Instructions Evicting Data 0
L2C Translations Evicting Data 1297
L2C Data Evicting Data 9335031
L2C Instructions Evicting Instructions 0
L2C Translations Evicting Instructions 0
L2C Data Evicting Instructions 0
L2C Instructions Evicting Translations 0
L2C Translations Evicting Translations 0
L2C Data Evicting Translations 1297
L2C Dense regions hint from L2: 0
PSCL5 TOTAL     ACCESS:       7107  HIT:       7107  MISS:          0  HIT %:        100  MISS %:          0   MPKI: 0
PSCL5 LOAD TRANSLATION ACCESS:       7107  HIT:       7107  MISS:          0  HIT %:        100  MISS %:          0   MPKI: 0
PSCL5 PREFETCH  REQUESTED:          0  ISSUED:          0  USEFUL:          0  USELESS:          0
PSCL5 USEFUL LOAD PREFETCHES:          0 PREFETCH ISSUED TO LOWER LEVEL:          0  ACCURACY: -nan
PSCL5 TIMELY PREFETCHES:          0 LATE PREFETCHES: 0 DROPPED PREFETCHES: 0
PSCL5 PREFETCHES SAME FILL-ORIGIN LEVEL: 0 DIFFERENT FILL-ORIGIN LEVEL: 0

PSCL4 TOTAL     ACCESS:       7107  HIT:       7107  MISS:          0  HIT %:        100  MISS %:          0   MPKI: 0
PSCL4 LOAD TRANSLATION ACCESS:       7107  HIT:       7107  MISS:          0  HIT %:        100  MISS %:          0   MPKI: 0
PSCL4 PREFETCH  REQUESTED:          0  ISSUED:          0  USEFUL:          0  USELESS:          0
PSCL4 USEFUL LOAD PREFETCHES:          0 PREFETCH ISSUED TO LOWER LEVEL:          0  ACCURACY: -nan
PSCL4 TIMELY PREFETCHES:          0 LATE PREFETCHES: 0 DROPPED PREFETCHES: 0
PSCL4 PREFETCHES SAME FILL-ORIGIN LEVEL: 0 DIFFERENT FILL-ORIGIN LEVEL: 0

PSCL3 TOTAL     ACCESS:       7107  HIT:       7107  MISS:          0  HIT %:        100  MISS %:          0   MPKI: 0
PSCL3 LOAD TRANSLATION ACCESS:       7107  HIT:       7107  MISS:          0  HIT %:        100  MISS %:          0   MPKI: 0
PSCL3 PREFETCH  REQUESTED:          0  ISSUED:          0  USEFUL:          0  USELESS:          0
PSCL3 USEFUL LOAD PREFETCHES:          0 PREFETCH ISSUED TO LOWER LEVEL:          0  ACCURACY: -nan
PSCL3 TIMELY PREFETCHES:          0 LATE PREFETCHES: 0 DROPPED PREFETCHES: 0
PSCL3 PREFETCHES SAME FILL-ORIGIN LEVEL: 0 DIFFERENT FILL-ORIGIN LEVEL: 0

PSCL2 TOTAL     ACCESS:       7107  HIT:       7093  MISS:         14  HIT %:     99.803  MISS %:   0.196989   MPKI: 0.00014
PSCL2 LOAD TRANSLATION ACCESS:       7107  HIT:       7093  MISS:         14  HIT %:     99.803  MISS %:   0.196989   MPKI: 0.00014
PSCL2 PREFETCH  REQUESTED:          0  ISSUED:          0  USEFUL:          0  USELESS:          0
PSCL2 USEFUL LOAD PREFETCHES:          0 PREFETCH ISSUED TO LOWER LEVEL:          0  ACCURACY: -nan
PSCL2 TIMELY PREFETCHES:          0 LATE PREFETCHES: 0 DROPPED PREFETCHES: 0
PSCL2 PREFETCHES SAME FILL-ORIGIN LEVEL: 0 DIFFERENT FILL-ORIGIN LEVEL: 0

LLC TOTAL     ACCESS:    9479425  HIT:    6451439  MISS:    3027986  HIT %:    68.0573  MISS %:    31.9427   MPKI: 30.2799
LLC LOAD      ACCESS:    5199802  HIT:    2977524  MISS:    2222278  HIT %:    57.2623  MISS %:    42.7377   MPKI: 22.2228
LLC PREFETCH  ACCESS:    4136525  HIT:    3331880  MISS:     804645  HIT %:    80.5478  MISS %:    19.4522   MPKI: 8.04645
AGUS PREFETCH L1 MISS: 0
LLC WRITEBACK ACCESS:     141801  HIT:     141656  MISS:        145  HIT %:    99.8977  MISS %:   0.102256   MPKI: 0.00145
LLC LOAD TRANSLATION ACCESS:       1297  HIT:        379  MISS:        918  HIT %:    29.2213  MISS %:    70.7787   MPKI: 0.00918
LLC PREFETCH  REQUESTED:          0  ISSUED:          0  USEFUL:     258632  USELESS:     546355
LLC USEFUL LOAD PREFETCHES:     258632 PREFETCH ISSUED TO LOWER LEVEL:     804645  ACCURACY: 32.1424
LLC TIMELY PREFETCHES:     258632 LATE PREFETCHES: 0 DROPPED PREFETCHES: 0
LLC PREFETCHES SAME FILL-ORIGIN LEVEL: 0 DIFFERENT FILL-ORIGIN LEVEL: 0
LLC AVERAGE MISS LATENCY: 169.231 cycles
LLC RQ	ACCESS:    5201099	FORWARD:          0	MERGED:          0	TO_CACHE:    5201099
LLC WQ	ACCESS:     141801	FORWARD:          1	MERGED:          0	TO_CACHE:     141801
LLC PQ	ACCESS:    4136525	FORWARD:          0	MERGED:          0	TO_CACHE:    4136524

LLC Dense regions hint to LLC: 0

RAW hits: 28449
Loads Generated: 27099941
Loads sent to L1D: 27071491
Stores Generated: 177901
Stores sent to L1D: 177901
Major fault: 0 Minor fault: 11539
Allocated PAGES: 11539
Prefetcher final stats
Training Unit Size: 63
Addr table size: 726830 726831


Triggers: 10855360
No Prediction: 1627144 14.9893
Stream end: 9167352
No translation: 617141621 5685.13
Predictions: 10731821 98.862


Stream divergence: 2435302 22.4341
Stream divergence -- new stream: 0

DRAM Statistics
 CHANNEL 0
 RQ ROW_BUFFER_HIT:     536687  ROW_BUFFER_MISS:    2491124
 DBUS_CONGESTED:        446
 WQ ROW_BUFFER_HIT:      56498  ROW_BUFFER_MISS:      83254  FULL:          0

 AVG_CONGESTED_CYCLE: 4
 All warmup complete: 2
Channel 0 Bank busy for read cycles: 0
Channel 0 Bank busy for write cycles: 0
Channel 0
Rank 0
0banks busy for read cycles: 202907861
0banks busy for write cycles: 114482
1banks busy for read cycles: 137261553
1banks busy for write cycles: 22874515
2banks busy for read cycles: 55147066
2banks busy for write cycles: 3073249
3banks busy for read cycles: 26321331
3banks busy for write cycles: 436757
4banks busy for read cycles: 11332605
4banks busy for write cycles: 62984
5banks busy for read cycles: 4067472
5banks busy for write cycles: 10997
6banks busy for read cycles: 1123120
6banks busy for write cycles: 1880
7banks busy for read cycles: 202650
7banks busy for write cycles: 695
8banks busy for read cycles: 20158
8banks busy for write cycles: 61

CPU 0 Branch Prediction Accuracy: 92.6805% MPKI: 14.6773 Average ROB Occupancy at Mispredict: 35.7951
Branch types
NOT_BRANCH: 79947426 79.9474%
BRANCH_DIRECT_JUMP: 0 0%
BRANCH_INDIRECT: 0 0%
BRANCH_CONDITIONAL: 20052403 20.0524%
BRANCH_DIRECT_CALL: 0 0%
BRANCH_INDIRECT_CALL: 0 0%
BRANCH_RETURN: 0 0%
BRANCH_OTHER: 0 0%

DRAM PAGES: 1048576
Allocated PAGES: 11539
