
*** ChampSim Multicore Out-of-Order Simulator ***

Warmup Instructions: 50000000
Simulation Instructions: 100000000
Number of CPUs: 1
LLC sets: 2048
LLC ways: 16
Off-chip DRAM Size: 4096 MB Channels: 1 Width: 64-bit Data Rate: 6400 MT/s
CPU 0 runs ./traces/GAP/cc-5.trace.gz
.gz
CPU 0 Bimodal branch predictor
BTB has LRU replacement policy
ITLB has LRU replacement policy
DTLB has LRU replacement policy
STLB has LRU replacement policy
L1I has LRU replacement policy
L1D has LRU replacement policy
L2C has LRU replacement policy
LLC has LRU replacement policy
Heartbeat CPU 0 instructions: 10000002 cycles: 3086396 heartbeat IPC: 3.24003 cumulative IPC: 3.24003 (Simulation time: 0 hr 0 min 25 sec) 
Heartbeat CPU 0 instructions: 20000000 cycles: 6151860 heartbeat IPC: 3.26215 cumulative IPC: 3.25105 (Simulation time: 0 hr 0 min 52 sec) 
Heartbeat CPU 0 instructions: 30000002 cycles: 9226477 heartbeat IPC: 3.25244 cumulative IPC: 3.25151 (Simulation time: 0 hr 1 min 18 sec) 
Heartbeat CPU 0 instructions: 40000000 cycles: 12304589 heartbeat IPC: 3.24874 cumulative IPC: 3.25082 (Simulation time: 0 hr 1 min 45 sec) 
Heartbeat CPU 0 instructions: 50000000 cycles: 15383956 heartbeat IPC: 3.24742 cumulative IPC: 3.25014 (Simulation time: 0 hr 2 min 12 sec) 

Warmup complete CPU 0 instructions: 50000004 cycles: 15383957 (Simulation time: 0 hr 2 min 12 sec) 

Heartbeat CPU 0 instructions: 60000000 cycles: 63453599 heartbeat IPC: 0.208032 cumulative IPC: 0.208031 (Simulation time: 0 hr 2 min 59 sec) 
Heartbeat CPU 0 instructions: 70000002 cycles: 109526144 heartbeat IPC: 0.217049 cumulative IPC: 0.212445 (Simulation time: 0 hr 3 min 46 sec) 
Heartbeat CPU 0 instructions: 80000000 cycles: 155997077 heartbeat IPC: 0.215188 cumulative IPC: 0.213351 (Simulation time: 0 hr 4 min 33 sec) 
Heartbeat CPU 0 instructions: 90000000 cycles: 203255734 heartbeat IPC: 0.211601 cumulative IPC: 0.212911 (Simulation time: 0 hr 5 min 20 sec) 
Heartbeat CPU 0 instructions: 100000000 cycles: 249136938 heartbeat IPC: 0.217954 cumulative IPC: 0.213901 (Simulation time: 0 hr 6 min 8 sec) 
Heartbeat CPU 0 instructions: 110000000 cycles: 295340881 heartbeat IPC: 0.216432 cumulative IPC: 0.214319 (Simulation time: 0 hr 6 min 55 sec) 
Heartbeat CPU 0 instructions: 120000000 cycles: 341474879 heartbeat IPC: 0.21676 cumulative IPC: 0.214664 (Simulation time: 0 hr 7 min 42 sec) 
Heartbeat CPU 0 instructions: 130000003 cycles: 385304340 heartbeat IPC: 0.228157 cumulative IPC: 0.216263 (Simulation time: 0 hr 8 min 29 sec) 
Heartbeat CPU 0 instructions: 140000000 cycles: 431280541 heartbeat IPC: 0.217504 cumulative IPC: 0.2164 (Simulation time: 0 hr 9 min 17 sec) 
Heartbeat CPU 0 instructions: 150000000 cycles: 476835899 heartbeat IPC: 0.219513 cumulative IPC: 0.216707 (Simulation time: 0 hr 10 min 4 sec) 
Finished CPU 0 instructions: 100000000 cycles: 461451995 cumulative IPC: 0.216707 (Simulation time: 0 hr 10 min 4 sec) 

ChampSim completed all CPUs

Region of Interest Statistics

CPU 0 cumulative IPC: 0.216707 instructions: 100000000 cycles: 461451995
ITLB TOTAL     ACCESS:   15666309  HIT:   15666309  MISS:          0  HIT %:        100  MISS %:          0   MPKI: 0
ITLB LOAD TRANSLATION ACCESS:   15666309  HIT:   15666309  MISS:          0  HIT %:        100  MISS %:          0   MPKI: 0
ITLB PREFETCH  REQUESTED:          0  ISSUED:          0  USEFUL:          0  USELESS:          0
ITLB USEFUL LOAD PREFETCHES:          0 PREFETCH ISSUED TO LOWER LEVEL:          0  ACCURACY: -nan
ITLB TIMELY PREFETCHES:          0 LATE PREFETCHES: 0 DROPPED PREFETCHES: 0
ITLB PREFETCHES SAME FILL-ORIGIN LEVEL: 0 DIFFERENT FILL-ORIGIN LEVEL: 0
ITLB AVERAGE MISS LATENCY: -nan cycles
ITLB RQ	ACCESS:   15877901	FORWARD:          0	MERGED:     211592	TO_CACHE:   15666309

DTLB TOTAL     ACCESS:   18996204  HIT:   14245406  MISS:    4750798  HIT %:    74.9908  MISS %:    25.0092   MPKI: 47.508
DTLB LOAD TRANSLATION ACCESS:   18996204  HIT:   14245406  MISS:    4750798  HIT %:    74.9908  MISS %:    25.0092   MPKI: 47.508
DTLB PREFETCH  REQUESTED:          0  ISSUED:          0  USEFUL:          0  USELESS:          0
DTLB USEFUL LOAD PREFETCHES:          0 PREFETCH ISSUED TO LOWER LEVEL:          0  ACCURACY: -nan
DTLB TIMELY PREFETCHES:          0 LATE PREFETCHES: 0 DROPPED PREFETCHES: 0
DTLB PREFETCHES SAME FILL-ORIGIN LEVEL: 0 DIFFERENT FILL-ORIGIN LEVEL: 0
DTLB AVERAGE MISS LATENCY: 9.77227 cycles
DTLB RQ	ACCESS:   20251962	FORWARD:          0	MERGED:    1224979	TO_CACHE:   19026983

STLB TOTAL     ACCESS:    4750798  HIT:    4743691  MISS:       7107  HIT %:    99.8504  MISS %:   0.149596   MPKI: 0.07107
STLB LOAD TRANSLATION ACCESS:    4750798  HIT:    4743691  MISS:       7107  HIT %:    99.8504  MISS %:   0.149596   MPKI: 0.07107
STLB PREFETCH  REQUESTED:          0  ISSUED:          0  USEFUL:          0  USELESS:          0
STLB USEFUL LOAD PREFETCHES:          0 PREFETCH ISSUED TO LOWER LEVEL:          0  ACCURACY: -nan
STLB TIMELY PREFETCHES:          0 LATE PREFETCHES: 0 DROPPED PREFETCHES: 0
STLB PREFETCHES SAME FILL-ORIGIN LEVEL: 0 DIFFERENT FILL-ORIGIN LEVEL: 0
STLB AVERAGE MISS LATENCY: 138.434 cycles
STLB RQ	ACCESS:    4750798	FORWARD:          0	MERGED:          0	TO_CACHE:    4750798

STLB Hit, L1D data hit: 0
STLB Hit, L2C data hit: 0
STLB Hit, LLC data hit: 0
STLB Hit, LLC data miss: 0
STLB STLB hints to L2: 0
L1D TOTAL     ACCESS:   19701717  HIT:   12428825  MISS:    7272892  HIT %:     63.085  MISS %:     36.915   MPKI: 72.7289
L1D LOAD      ACCESS:   19523816  HIT:   12250924  MISS:    7272892  HIT %:    62.7486  MISS %:    37.2514   MPKI: 72.7289
L1D RFO       ACCESS:     177901  HIT:     177901  MISS:          0  HIT %:        100  MISS %:          0   MPKI: 0
L1D PREFETCH  REQUESTED:          0  ISSUED:          0  USEFUL:          0  USELESS:          0
L1D USEFUL LOAD PREFETCHES:          0 PREFETCH ISSUED TO LOWER LEVEL:          0  ACCURACY: -nan
L1D TIMELY PREFETCHES:          0 LATE PREFETCHES: 0 DROPPED PREFETCHES: 0
L1D PREFETCHES SAME FILL-ORIGIN LEVEL: 0 DIFFERENT FILL-ORIGIN LEVEL: 0
L1D AVERAGE MISS LATENCY: 85.201 cycles
L1D RQ	ACCESS:   27071494	FORWARD:          0	MERGED:    6992359	TO_CACHE:   20074061
L1D WQ	ACCESS:     177901	FORWARD:       5074	MERGED:          0	TO_CACHE:     177901

L1D UNIQUE REGIONS ACCESSED: 0
L1D REGIONS CONFLICTS: 0
L1D Cross Page Prefetch Requests: 0
L1D Same Page Prefetch Requests: 0
L1D ROI Sum of L1D PQ occupancy: 0
L1D PREFETCHES PUSHED FROM L2C: 0
L1I TOTAL     ACCESS:   15877900  HIT:   15877900  MISS:          0  HIT %:        100  MISS %:          0   MPKI: 0
L1I LOAD      ACCESS:   15877900  HIT:   15877900  MISS:          0  HIT %:        100  MISS %:          0   MPKI: 0
L1I PREFETCH  REQUESTED:          0  ISSUED:          0  USEFUL:          0  USELESS:          0
L1I USEFUL LOAD PREFETCHES:          0 PREFETCH ISSUED TO LOWER LEVEL:          0  ACCURACY: -nan
L1I TIMELY PREFETCHES:          0 LATE PREFETCHES: 0 DROPPED PREFETCHES: 0
L1I PREFETCHES SAME FILL-ORIGIN LEVEL: 0 DIFFERENT FILL-ORIGIN LEVEL: 0
L1I AVERAGE MISS LATENCY: -nan cycles
L1I RQ	ACCESS:   26183649	FORWARD:          0	MERGED:   10305748	TO_CACHE:   15877901

BTB TOTAL     ACCESS:   19963847  HIT:   19963842  MISS:          5  HIT %:        100  MISS %: 2.50453e-05   MPKI: 5e-05
BTB BRANCH_DIRECT_JUMP	ACCESS:          0  HIT:          0  MISS:          0
BTB BRANCH_INDIRECT	ACCESS:          0  HIT:          0  MISS:          0
BTB BRANCH_CONDITIONAL	ACCESS:   19963847  HIT:   19963842  MISS:          5
BTB BRANCH_DIRECT_CALL	ACCESS:          0  HIT:          0  MISS:          0
BTB BRANCH_INDIRECT_CALL	ACCESS:          0  HIT:          0  MISS:          0
BTB BRANCH_RETURN	ACCESS:          0  HIT:          0  MISS:          0
BTB BRANCH_OTHER ACCESS:          0  HIT:          0  MISS:          0

L2C TOTAL     ACCESS:    7421903  HIT:    2385872  MISS:    5036031  HIT %:    32.1464  MISS %:    67.8536   MPKI: 50.3603
L2C LOAD      ACCESS:    7272890  HIT:    2238172  MISS:    5034718  HIT %:    30.7742  MISS %:    69.2258   MPKI: 50.3472
L2C DATA LOAD MPKI: 50.3472
L2C INSTRUCTION LOAD MPKI: 0
L2C WRITEBACK ACCESS:     141906  HIT:     141842  MISS:         64  HIT %:    99.9549  MISS %:  0.0451003   MPKI: 0.00064
L2C LOAD TRANSLATION ACCESS:       7107  HIT:       5858  MISS:       1249  HIT %:    82.4258  MISS %:    17.5742   MPKI: 0.01249
L2C PREFETCH  REQUESTED:          0  ISSUED:          0  USEFUL:          0  USELESS:          0
L2C USEFUL LOAD PREFETCHES:          0 PREFETCH ISSUED TO LOWER LEVEL:          0  ACCURACY: -nan
L2C TIMELY PREFETCHES:          0 LATE PREFETCHES: 0 DROPPED PREFETCHES: 0
L2C PREFETCHES SAME FILL-ORIGIN LEVEL: 0 DIFFERENT FILL-ORIGIN LEVEL: 0
L2C AVERAGE MISS LATENCY: 101.059 cycles
L2C RQ	ACCESS:    7279999	FORWARD:          0	MERGED:          0	TO_CACHE:    7279999
L2C WQ	ACCESS:     141906	FORWARD:          0	MERGED:          0	TO_CACHE:     141906

L2C Instructions Evicting Data 0
L2C Translations Evicting Data 1249
L2C Data Evicting Data 5033470
L2C Instructions Evicting Instructions 0
L2C Translations Evicting Instructions 0
L2C Data Evicting Instructions 0
L2C Instructions Evicting Translations 0
L2C Translations Evicting Translations 0
L2C Data Evicting Translations 1248
L2C Dense regions hint from L2: 0
PSCL5 TOTAL     ACCESS:       7107  HIT:       7107  MISS:          0  HIT %:        100  MISS %:          0   MPKI: 0
PSCL5 LOAD TRANSLATION ACCESS:       7107  HIT:       7107  MISS:          0  HIT %:        100  MISS %:          0   MPKI: 0
PSCL5 PREFETCH  REQUESTED:          0  ISSUED:          0  USEFUL:          0  USELESS:          0
PSCL5 USEFUL LOAD PREFETCHES:          0 PREFETCH ISSUED TO LOWER LEVEL:          0  ACCURACY: -nan
PSCL5 TIMELY PREFETCHES:          0 LATE PREFETCHES: 0 DROPPED PREFETCHES: 0
PSCL5 PREFETCHES SAME FILL-ORIGIN LEVEL: 0 DIFFERENT FILL-ORIGIN LEVEL: 0

PSCL4 TOTAL     ACCESS:       7107  HIT:       7107  MISS:          0  HIT %:        100  MISS %:          0   MPKI: 0
PSCL4 LOAD TRANSLATION ACCESS:       7107  HIT:       7107  MISS:          0  HIT %:        100  MISS %:          0   MPKI: 0
PSCL4 PREFETCH  REQUESTED:          0  ISSUED:          0  USEFUL:          0  USELESS:          0
PSCL4 USEFUL LOAD PREFETCHES:          0 PREFETCH ISSUED TO LOWER LEVEL:          0  ACCURACY: -nan
PSCL4 TIMELY PREFETCHES:          0 LATE PREFETCHES: 0 DROPPED PREFETCHES: 0
PSCL4 PREFETCHES SAME FILL-ORIGIN LEVEL: 0 DIFFERENT FILL-ORIGIN LEVEL: 0

PSCL3 TOTAL     ACCESS:       7107  HIT:       7107  MISS:          0  HIT %:        100  MISS %:          0   MPKI: 0
PSCL3 LOAD TRANSLATION ACCESS:       7107  HIT:       7107  MISS:          0  HIT %:        100  MISS %:          0   MPKI: 0
PSCL3 PREFETCH  REQUESTED:          0  ISSUED:          0  USEFUL:          0  USELESS:          0
PSCL3 USEFUL LOAD PREFETCHES:          0 PREFETCH ISSUED TO LOWER LEVEL:          0  ACCURACY: -nan
PSCL3 TIMELY PREFETCHES:          0 LATE PREFETCHES: 0 DROPPED PREFETCHES: 0
PSCL3 PREFETCHES SAME FILL-ORIGIN LEVEL: 0 DIFFERENT FILL-ORIGIN LEVEL: 0

PSCL2 TOTAL     ACCESS:       7107  HIT:       7093  MISS:         14  HIT %:     99.803  MISS %:   0.196989   MPKI: 0.00014
PSCL2 LOAD TRANSLATION ACCESS:       7107  HIT:       7093  MISS:         14  HIT %:     99.803  MISS %:   0.196989   MPKI: 0.00014
PSCL2 PREFETCH  REQUESTED:          0  ISSUED:          0  USEFUL:          0  USELESS:          0
PSCL2 USEFUL LOAD PREFETCHES:          0 PREFETCH ISSUED TO LOWER LEVEL:          0  ACCURACY: -nan
PSCL2 TIMELY PREFETCHES:          0 LATE PREFETCHES: 0 DROPPED PREFETCHES: 0
PSCL2 PREFETCHES SAME FILL-ORIGIN LEVEL: 0 DIFFERENT FILL-ORIGIN LEVEL: 0

LLC TOTAL     ACCESS:    5177656  HIT:    2952570  MISS:    2225086  HIT %:    57.0252  MISS %:    42.9748   MPKI: 22.2509
LLC LOAD      ACCESS:    5034718  HIT:    2810872  MISS:    2223846  HIT %:    55.8298  MISS %:    44.1702   MPKI: 22.2385
LLC WRITEBACK ACCESS:     141689  HIT:     141356  MISS:        333  HIT %:     99.765  MISS %:   0.235022   MPKI: 0.00333
LLC LOAD TRANSLATION ACCESS:       1249  HIT:        342  MISS:        907  HIT %:    27.3819  MISS %:    72.6181   MPKI: 0.00907
LLC PREFETCH  REQUESTED:          0  ISSUED:          0  USEFUL:          0  USELESS:          0
LLC USEFUL LOAD PREFETCHES:          0 PREFETCH ISSUED TO LOWER LEVEL:          0  ACCURACY: -nan
LLC TIMELY PREFETCHES:          0 LATE PREFETCHES: 0 DROPPED PREFETCHES: 0
LLC PREFETCHES SAME FILL-ORIGIN LEVEL: 0 DIFFERENT FILL-ORIGIN LEVEL: 0
LLC AVERAGE MISS LATENCY: 160.744 cycles
LLC RQ	ACCESS:    5035968	FORWARD:          0	MERGED:          0	TO_CACHE:    5035968
LLC WQ	ACCESS:     141689	FORWARD:          0	MERGED:          0	TO_CACHE:     141689

LLC Dense regions hint to LLC: 0

RAW hits: 28449
Loads Generated: 27099945
Loads sent to L1D: 27071494
Stores Generated: 177901
Stores sent to L1D: 177901
Major fault: 0 Minor fault: 11539
Allocated PAGES: 11539

DRAM Statistics
 CHANNEL 0
 RQ ROW_BUFFER_HIT:     395761  ROW_BUFFER_MISS:    1828986
 DBUS_CONGESTED:        184
 WQ ROW_BUFFER_HIT:      58138  ROW_BUFFER_MISS:      80902  FULL:          0

 AVG_CONGESTED_CYCLE: 4
 All warmup complete: 2
Channel 0 Bank busy for read cycles: 0
Channel 0 Bank busy for write cycles: 0
Channel 0
Rank 0
0banks busy for read cycles: 226543528
0banks busy for write cycles: 120132
1banks busy for read cycles: 146117610
1banks busy for write cycles: 23535235
2banks busy for read cycles: 44932771
2banks busy for write cycles: 2108201
3banks busy for read cycles: 14065973
3banks busy for write cycles: 183798
4banks busy for read cycles: 3263485
4banks busy for write cycles: 14034
5banks busy for read cycles: 502339
5banks busy for write cycles: 773
6banks busy for read cycles: 58725
6banks busy for write cycles: 0
7banks busy for read cycles: 5200
7banks busy for write cycles: 0
8banks busy for read cycles: 192
8banks busy for write cycles: 0

CPU 0 Branch Prediction Accuracy: 92.6805% MPKI: 14.6773 Average ROB Occupancy at Mispredict: 35.7897
Branch types
NOT_BRANCH: 79947450 79.9475%
BRANCH_DIRECT_JUMP: 0 0%
BRANCH_INDIRECT: 0 0%
BRANCH_CONDITIONAL: 20052409 20.0524%
BRANCH_DIRECT_CALL: 0 0%
BRANCH_INDIRECT_CALL: 0 0%
BRANCH_RETURN: 0 0%
BRANCH_OTHER: 0 0%

DRAM PAGES: 1048576
Allocated PAGES: 11539
