
*** ChampSim Multicore Out-of-Order Simulator ***

Warmup Instructions: 50000000
Simulation Instructions: 100000000
Number of CPUs: 1
LLC sets: 2048
LLC ways: 16
Off-chip DRAM Size: 4096 MB Channels: 1 Width: 64-bit Data Rate: 6400 MT/s
CPU 0 runs ./traces/GAP/SUBSET/cc-5.trace.gz
.gz
CPU 0 Bimodal branch predictor
BTB has LRU replacement policy
ITLB has LRU replacement policy
DTLB has LRU replacement policy
STLB has LRU replacement policy
L1I has LRU replacement policy
L1D has LRU replacement policy
L2C has LRU replacement policy
LLC has LRU replacement policy
Heartbeat CPU 0 instructions: 10000003 cycles: 3081245 heartbeat IPC: 3.24544 cumulative IPC: 3.24544 (Simulation time: 0 hr 5 min 11 sec) 
Heartbeat CPU 0 instructions: 20000000 cycles: 6140863 heartbeat IPC: 3.26838 cumulative IPC: 3.25687 (Simulation time: 0 hr 8 min 53 sec) 
Heartbeat CPU 0 instructions: 30000003 cycles: 9212991 heartbeat IPC: 3.25507 cumulative IPC: 3.25627 (Simulation time: 0 hr 12 min 35 sec) 
Heartbeat CPU 0 instructions: 40000000 cycles: 12287434 heartbeat IPC: 3.25262 cumulative IPC: 3.25536 (Simulation time: 0 hr 16 min 17 sec) 
Heartbeat CPU 0 instructions: 50000002 cycles: 15362342 heartbeat IPC: 3.25213 cumulative IPC: 3.25471 (Simulation time: 0 hr 20 min 2 sec) 

Warmup complete CPU 0 instructions: 50000002 cycles: 15362342 (Simulation time: 0 hr 20 min 2 sec) 

Heartbeat CPU 0 instructions: 60000000 cycles: 61075164 heartbeat IPC: 0.218757 cumulative IPC: 0.218757 (Simulation time: 0 hr 23 min 22 sec) 
Heartbeat CPU 0 instructions: 70000003 cycles: 104681524 heartbeat IPC: 0.229324 cumulative IPC: 0.223916 (Simulation time: 0 hr 26 min 44 sec) 
Heartbeat CPU 0 instructions: 80000000 cycles: 148752037 heartbeat IPC: 0.226909 cumulative IPC: 0.224905 (Simulation time: 0 hr 30 min 11 sec) 
Heartbeat CPU 0 instructions: 90000000 cycles: 193658341 heartbeat IPC: 0.222686 cumulative IPC: 0.224346 (Simulation time: 0 hr 33 min 43 sec) 
Heartbeat CPU 0 instructions: 100000000 cycles: 237281108 heartbeat IPC: 0.229238 cumulative IPC: 0.225308 (Simulation time: 0 hr 37 min 12 sec) 
Heartbeat CPU 0 instructions: 110000000 cycles: 281051055 heartbeat IPC: 0.228467 cumulative IPC: 0.225828 (Simulation time: 0 hr 40 min 43 sec) 
Heartbeat CPU 0 instructions: 120000000 cycles: 324834983 heartbeat IPC: 0.228394 cumulative IPC: 0.226191 (Simulation time: 0 hr 44 min 13 sec) 
Heartbeat CPU 0 instructions: 130000003 cycles: 366140751 heartbeat IPC: 0.242097 cumulative IPC: 0.228064 (Simulation time: 0 hr 47 min 38 sec) 
Heartbeat CPU 0 instructions: 140000000 cycles: 409743215 heartbeat IPC: 0.229345 cumulative IPC: 0.228206 (Simulation time: 0 hr 51 min 12 sec) 
Heartbeat CPU 0 instructions: 150000000 cycles: 453074340 heartbeat IPC: 0.230781 cumulative IPC: 0.228461 (Simulation time: 0 hr 54 min 49 sec) 
Finished CPU 0 instructions: 100000000 cycles: 437712012 cumulative IPC: 0.228461 (Simulation time: 0 hr 54 min 49 sec) 

ChampSim completed all CPUs

Region of Interest Statistics

CPU 0 cumulative IPC: 0.228461 instructions: 100000000 cycles: 437712012
ITLB TOTAL     ACCESS:   15617390  HIT:   15617390  MISS:          0  HIT %:        100  MISS %:          0   MPKI: 0
ITLB LOAD TRANSLATION ACCESS:   15617390  HIT:   15617390  MISS:          0  HIT %:        100  MISS %:          0   MPKI: 0
ITLB PREFETCH  REQUESTED:          0  ISSUED:          0  USEFUL:          0  USELESS:          0
ITLB USEFUL LOAD PREFETCHES:          0 PREFETCH ISSUED TO LOWER LEVEL:          0  ACCURACY: -nan
ITLB TIMELY PREFETCHES:          0 LATE PREFETCHES: 0 DROPPED PREFETCHES: 0
ITLB PREFETCHES SAME FILL-ORIGIN LEVEL: 0 DIFFERENT FILL-ORIGIN LEVEL: 0
ITLB AVERAGE MISS LATENCY: -nan cycles
ITLB RQ	ACCESS:   15828982	FORWARD:          0	MERGED:     211592	TO_CACHE:   15617390

DTLB TOTAL     ACCESS:   19106007  HIT:   14354924  MISS:    4751083  HIT %:     75.133  MISS %:     24.867   MPKI: 47.5108
DTLB LOAD TRANSLATION ACCESS:   19106007  HIT:   14354924  MISS:    4751083  HIT %:     75.133  MISS %:     24.867   MPKI: 47.5108
DTLB PREFETCH  REQUESTED:          0  ISSUED:          0  USEFUL:          0  USELESS:          0
DTLB USEFUL LOAD PREFETCHES:          0 PREFETCH ISSUED TO LOWER LEVEL:          0  ACCURACY: -nan
DTLB TIMELY PREFETCHES:          0 LATE PREFETCHES: 0 DROPPED PREFETCHES: 0
DTLB PREFETCHES SAME FILL-ORIGIN LEVEL: 0 DIFFERENT FILL-ORIGIN LEVEL: 0
DTLB AVERAGE MISS LATENCY: 9.68541 cycles
DTLB RQ	ACCESS:   20279571	FORWARD:          0	MERGED:    1129788	TO_CACHE:   19149783

STLB TOTAL     ACCESS:   14497298  HIT:   14490191  MISS:       7107  HIT %:     99.951  MISS %:  0.0490229   MPKI: 0.07107
STLB LOAD TRANSLATION ACCESS:    4751083  HIT:    4743976  MISS:       7107  HIT %:    99.8504  MISS %:   0.149587   MPKI: 0.07107
STLB TRANSLATION FROM L1D PREFETCHER ACCESS:    9746215  HIT:    9746215  MISS:          0  HIT %:        100  MISS %:          0   MPKI: 0
STLB PREFETCH  REQUESTED:          0  ISSUED:          0  USEFUL:          0  USELESS:          0
STLB USEFUL LOAD PREFETCHES:          0 PREFETCH ISSUED TO LOWER LEVEL:          0  ACCURACY: -nan
STLB TIMELY PREFETCHES:          0 LATE PREFETCHES: 0 DROPPED PREFETCHES: 0
STLB PREFETCHES SAME FILL-ORIGIN LEVEL: 0 DIFFERENT FILL-ORIGIN LEVEL: 0
STLB AVERAGE MISS LATENCY: 140.643 cycles
STLB RQ	ACCESS:   17120782	FORWARD:          0	MERGED:    2623484	TO_CACHE:   14497298

STLB Hit, L1D data hit: 0
STLB Hit, L2C data hit: 0
STLB Hit, LLC data hit: 0
STLB Hit, LLC data miss: 0
STLB STLB hints to L2: 0
L1D TOTAL     ACCESS:   32246721  HIT:   13533516  MISS:   18713205  HIT %:    41.9687  MISS %:    58.0313   MPKI: 187.132
L1D LOAD      ACCESS:   19844615  HIT:   12753501  MISS:    7091114  HIT %:    64.2668  MISS %:    35.7332   MPKI: 70.9111
L1D RFO       ACCESS:     177901  HIT:     177901  MISS:          0  HIT %:        100  MISS %:          0   MPKI: 0
L1D PREFETCH  ACCESS:   12224205  HIT:     602114  MISS:   11622091  HIT %:    4.92559  MISS %:    95.0744   MPKI: 116.221
AGUS PREFETCH L1 MISS: 0
L1D PREFETCH  REQUESTED:   27279791  ISSUED:   24784075  USEFUL:     543002  USELESS:   11079109
L1D USEFUL LOAD PREFETCHES:     543002 PREFETCH ISSUED TO LOWER LEVEL:   11651562  ACCURACY: 4.66034
L1D TIMELY PREFETCHES:     543002 LATE PREFETCHES: 29477 DROPPED PREFETCHES: 0
L1D PREFETCHES SAME FILL-ORIGIN LEVEL: 11651562 DIFFERENT FILL-ORIGIN LEVEL: 0
L1D AVERAGE MISS LATENCY: 87.1869 cycles
L1D RQ	ACCESS:   27071482	FORWARD:          0	MERGED:    6964745	TO_CACHE:   20101670
L1D WQ	ACCESS:     177901	FORWARD:       5067	MERGED:          0	TO_CACHE:     177901
L1D PQ	ACCESS:   12414376	FORWARD:          0	MERGED:      44677	TO_CACHE:   12369699

L1D UNIQUE REGIONS ACCESSED: 0
L1D REGIONS CONFLICTS: 0
L1D Cross Page Prefetch Requests: 7761489
L1D Same Page Prefetch Requests: 10729540
L1D ROI Sum of L1D PQ occupancy: 181969930
L1D PREFETCHES PUSHED FROM L2C: 0
L1I TOTAL     ACCESS:   15828981  HIT:   15828981  MISS:          0  HIT %:        100  MISS %:          0   MPKI: 0
L1I LOAD      ACCESS:   15828981  HIT:   15828981  MISS:          0  HIT %:        100  MISS %:          0   MPKI: 0
L1I PREFETCH  REQUESTED:          0  ISSUED:          0  USEFUL:          0  USELESS:          0
L1I USEFUL LOAD PREFETCHES:          0 PREFETCH ISSUED TO LOWER LEVEL:          0  ACCURACY: -nan
L1I TIMELY PREFETCHES:          0 LATE PREFETCHES: 0 DROPPED PREFETCHES: 0
L1I PREFETCHES SAME FILL-ORIGIN LEVEL: 0 DIFFERENT FILL-ORIGIN LEVEL: 0
L1I AVERAGE MISS LATENCY: -nan cycles
L1I RQ	ACCESS:   26134417	FORWARD:          0	MERGED:   10305435	TO_CACHE:   15828982

BTB TOTAL     ACCESS:   19963832  HIT:   19963827  MISS:          5  HIT %:        100  MISS %: 2.50453e-05   MPKI: 5e-05
BTB BRANCH_DIRECT_JUMP	ACCESS:          0  HIT:          0  MISS:          0
BTB BRANCH_INDIRECT	ACCESS:          0  HIT:          0  MISS:          0
BTB BRANCH_CONDITIONAL	ACCESS:   19963832  HIT:   19963827  MISS:          5
BTB BRANCH_DIRECT_CALL	ACCESS:          0  HIT:          0  MISS:          0
BTB BRANCH_INDIRECT_CALL	ACCESS:          0  HIT:          0  MISS:          0
BTB BRANCH_RETURN	ACCESS:          0  HIT:          0  MISS:          0
BTB BRANCH_OTHER ACCESS:          0  HIT:          0  MISS:          0

L2C TOTAL     ACCESS:   18862221  HIT:    5142029  MISS:   13720192  HIT %:     27.261  MISS %:     72.739   MPKI: 137.202
L2C LOAD      ACCESS:    7061636  HIT:    1865404  MISS:    5196232  HIT %:     26.416  MISS %:     73.584   MPKI: 51.9623
L2C DATA LOAD MPKI: 51.9623
L2C INSTRUCTION LOAD MPKI: 0
L2C PREFETCH  ACCESS:   11651566  HIT:    3129291  MISS:    8522275  HIT %:    26.8573  MISS %:    73.1427   MPKI: 85.2228
AGUS PREFETCH L1 MISS: 0
L2C DATA PREFETCH MPKI: 85.2228
L2C INSTRUCTION PREFETCH MPKI: 0
L2C WRITEBACK ACCESS:     141912  HIT:     141554  MISS:        358  HIT %:    99.7477  MISS %:   0.252269   MPKI: 0.00358
L2C LOAD TRANSLATION ACCESS:       7107  HIT:       5780  MISS:       1327  HIT %:    81.3283  MISS %:    18.6717   MPKI: 0.01327
L2C PREFETCH  REQUESTED:          0  ISSUED:          0  USEFUL:     450201  USELESS:    8072194
L2C USEFUL LOAD PREFETCHES:     450201 PREFETCH ISSUED TO LOWER LEVEL:    8522274  ACCURACY: 5.28264
L2C TIMELY PREFETCHES:     450201 LATE PREFETCHES: 0 DROPPED PREFETCHES: 0
L2C PREFETCHES SAME FILL-ORIGIN LEVEL: 0 DIFFERENT FILL-ORIGIN LEVEL: 0
L2C AVERAGE MISS LATENCY: 98.0494 cycles
L2C RQ	ACCESS:    7068743	FORWARD:          0	MERGED:          0	TO_CACHE:    7068743
L2C WQ	ACCESS:     141912	FORWARD:          1	MERGED:          0	TO_CACHE:     141912
L2C PQ	ACCESS:   11651562	FORWARD:          0	MERGED:          0	TO_CACHE:   11651561

L2C Instructions Evicting Data 0
L2C Translations Evicting Data 1327
L2C Data Evicting Data 13717180
L2C Instructions Evicting Instructions 0
L2C Translations Evicting Instructions 0
L2C Data Evicting Instructions 0
L2C Instructions Evicting Translations 0
L2C Translations Evicting Translations 0
L2C Data Evicting Translations 1327
L2C Dense regions hint from L2: 0
PSCL5 TOTAL     ACCESS:       7107  HIT:       7107  MISS:          0  HIT %:        100  MISS %:          0   MPKI: 0
PSCL5 LOAD TRANSLATION ACCESS:       7107  HIT:       7107  MISS:          0  HIT %:        100  MISS %:          0   MPKI: 0
PSCL5 PREFETCH  REQUESTED:          0  ISSUED:          0  USEFUL:          0  USELESS:          0
PSCL5 USEFUL LOAD PREFETCHES:          0 PREFETCH ISSUED TO LOWER LEVEL:          0  ACCURACY: -nan
PSCL5 TIMELY PREFETCHES:          0 LATE PREFETCHES: 0 DROPPED PREFETCHES: 0
PSCL5 PREFETCHES SAME FILL-ORIGIN LEVEL: 0 DIFFERENT FILL-ORIGIN LEVEL: 0

PSCL4 TOTAL     ACCESS:       7107  HIT:       7107  MISS:          0  HIT %:        100  MISS %:          0   MPKI: 0
PSCL4 LOAD TRANSLATION ACCESS:       7107  HIT:       7107  MISS:          0  HIT %:        100  MISS %:          0   MPKI: 0
PSCL4 PREFETCH  REQUESTED:          0  ISSUED:          0  USEFUL:          0  USELESS:          0
PSCL4 USEFUL LOAD PREFETCHES:          0 PREFETCH ISSUED TO LOWER LEVEL:          0  ACCURACY: -nan
PSCL4 TIMELY PREFETCHES:          0 LATE PREFETCHES: 0 DROPPED PREFETCHES: 0
PSCL4 PREFETCHES SAME FILL-ORIGIN LEVEL: 0 DIFFERENT FILL-ORIGIN LEVEL: 0

PSCL3 TOTAL     ACCESS:       7107  HIT:       7107  MISS:          0  HIT %:        100  MISS %:          0   MPKI: 0
PSCL3 LOAD TRANSLATION ACCESS:       7107  HIT:       7107  MISS:          0  HIT %:        100  MISS %:          0   MPKI: 0
PSCL3 PREFETCH  REQUESTED:          0  ISSUED:          0  USEFUL:          0  USELESS:          0
PSCL3 USEFUL LOAD PREFETCHES:          0 PREFETCH ISSUED TO LOWER LEVEL:          0  ACCURACY: -nan
PSCL3 TIMELY PREFETCHES:          0 LATE PREFETCHES: 0 DROPPED PREFETCHES: 0
PSCL3 PREFETCHES SAME FILL-ORIGIN LEVEL: 0 DIFFERENT FILL-ORIGIN LEVEL: 0

PSCL2 TOTAL     ACCESS:       7107  HIT:       7093  MISS:         14  HIT %:     99.803  MISS %:   0.196989   MPKI: 0.00014
PSCL2 LOAD TRANSLATION ACCESS:       7107  HIT:       7093  MISS:         14  HIT %:     99.803  MISS %:   0.196989   MPKI: 0.00014
PSCL2 PREFETCH  REQUESTED:          0  ISSUED:          0  USEFUL:          0  USELESS:          0
PSCL2 USEFUL LOAD PREFETCHES:          0 PREFETCH ISSUED TO LOWER LEVEL:          0  ACCURACY: -nan
PSCL2 TIMELY PREFETCHES:          0 LATE PREFETCHES: 0 DROPPED PREFETCHES: 0
PSCL2 PREFETCHES SAME FILL-ORIGIN LEVEL: 0 DIFFERENT FILL-ORIGIN LEVEL: 0

LLC TOTAL     ACCESS:   13861663  HIT:    8380732  MISS:    5480931  HIT %:    60.4598  MISS %:    39.5402   MPKI: 54.8093
LLC LOAD      ACCESS:    5196232  HIT:    2981683  MISS:    2214549  HIT %:    57.3816  MISS %:    42.6184   MPKI: 22.1455
LLC PREFETCH  ACCESS:    8522274  HIT:    5256958  MISS:    3265316  HIT %:    61.6849  MISS %:    38.3151   MPKI: 32.6532
AGUS PREFETCH L1 MISS: 0
LLC WRITEBACK ACCESS:     141830  HIT:     141723  MISS:        107  HIT %:    99.9246  MISS %:  0.0754424   MPKI: 0.00107
LLC LOAD TRANSLATION ACCESS:       1327  HIT:        368  MISS:        959  HIT %:    27.7317  MISS %:    72.2683   MPKI: 0.00959
LLC PREFETCH  REQUESTED:          0  ISSUED:          0  USEFUL:     601544  USELESS:    2664307
LLC USEFUL LOAD PREFETCHES:     601544 PREFETCH ISSUED TO LOWER LEVEL:    3265316  ACCURACY: 18.4222
LLC TIMELY PREFETCHES:     601544 LATE PREFETCHES: 0 DROPPED PREFETCHES: 0
LLC PREFETCHES SAME FILL-ORIGIN LEVEL: 0 DIFFERENT FILL-ORIGIN LEVEL: 0
LLC AVERAGE MISS LATENCY: 170.24 cycles
LLC RQ	ACCESS:    5197559	FORWARD:          0	MERGED:          0	TO_CACHE:    5197559
LLC WQ	ACCESS:     141830	FORWARD:          1	MERGED:          0	TO_CACHE:     141830
LLC PQ	ACCESS:    8522274	FORWARD:          0	MERGED:          0	TO_CACHE:    8522273

LLC Dense regions hint to LLC: 0

RAW hits: 28449
Loads Generated: 27099933
Loads sent to L1D: 27071482
Stores Generated: 177901
Stores sent to L1D: 177901
Major fault: 0 Minor fault: 11539
Allocated PAGES: 11539

stream: 
stream:times selected: 10295072
stream:pref_filled: 8266466
stream:pref_useful: 170476
stream:pref_late: 30568
stream:misses: 2619043
stream:misses_by_poll: 0

CS: 
CS:times selected: 137217
CS:pref_filled: 329648
CS:pref_useful: 293303
CS:pref_late: 489
CS:misses: 244095
CS:misses_by_poll: 157

CPLX: 
CPLX:times selected: 10062876
CPLX:pref_filled: 120735
CPLX:pref_useful: 8385
CPLX:pref_late: 1179
CPLX:misses: 7807485
CPLX:misses_by_poll: 26

NL_L1: 
NL:times selected: 16585
NL:pref_filled: 14797
NL:pref_useful: 2283
NL:pref_late: 38
NL:misses: 17601
NL:misses_by_poll: 0

total selections: 20511750
total_filled: 11622091
total_useful: 543002
total_late: 51403
total_polluted: 183
total_misses_after_warmup: 7348170
conflicts: 49

test: 6009175
ISB Prefetcher final stats
Training Unit Size: 6
Addr table size: 358423 358424


Triggers: 10295074
No Prediction: 1259862 12.2375
Stream end: 8974046
No translation: 522106384 5071.42
Predictions: 9078265 88.1807


Stream divergence: 2432528 23.6281
Stream divergence -- new stream: 0

DRAM Statistics
 CHANNEL 0
 RQ ROW_BUFFER_HIT:    1472771  ROW_BUFFER_MISS:    4007987
 DBUS_CONGESTED:       2151
 WQ ROW_BUFFER_HIT:      59438  ROW_BUFFER_MISS:      81371  FULL:          0

 AVG_CONGESTED_CYCLE: 4
 All warmup complete: 2
Channel 0 Bank busy for read cycles: 0
Channel 0 Bank busy for write cycles: 0
Channel 0
Rank 0
0banks busy for read cycles: 129902202
0banks busy for write cycles: 99215
1banks busy for read cycles: 97724105
1banks busy for write cycles: 22670716
2banks busy for read cycles: 71354927
2banks busy for write cycles: 5254620
3banks busy for read cycles: 45739542
3banks busy for write cycles: 1339383
4banks busy for read cycles: 33249575
4banks busy for write cycles: 341235
5banks busy for read cycles: 18632794
5banks busy for write cycles: 88764
6banks busy for read cycles: 8334531
6banks busy for write cycles: 24731
7banks busy for read cycles: 2545368
7banks busy for write cycles: 6733
8banks busy for read cycles: 401759
8banks busy for write cycles: 1813

CPU 0 Branch Prediction Accuracy: 92.6805% MPKI: 14.6773 Average ROB Occupancy at Mispredict: 35.7806
Branch types
NOT_BRANCH: 79947390 79.9474%
BRANCH_DIRECT_JUMP: 0 0%
BRANCH_INDIRECT: 0 0%
BRANCH_CONDITIONAL: 20052394 20.0524%
BRANCH_DIRECT_CALL: 0 0%
BRANCH_INDIRECT_CALL: 0 0%
BRANCH_RETURN: 0 0%
BRANCH_OTHER: 0 0%

DRAM PAGES: 1048576
Allocated PAGES: 11539
