
*** ChampSim Multicore Out-of-Order Simulator ***

Warmup Instructions: 50000000
Simulation Instructions: 100000000
Number of CPUs: 1
LLC sets: 2048
LLC ways: 16
Off-chip DRAM Size: 4096 MB Channels: 1 Width: 64-bit Data Rate: 6400 MT/s
CPU 0 runs ./traces/GAP/cc-6.trace.gz
.gz
CPU 0 Bimodal branch predictor
BTB has LRU replacement policy
ITLB has LRU replacement policy
DTLB has LRU replacement policy
STLB has LRU replacement policy
L1I has LRU replacement policy
Ideal ISB Prefetching
L1D has LRU replacement policy
L2C has LRU replacement policy
LLC has LRU replacement policy
Heartbeat CPU 0 instructions: 10000003 cycles: 3101728 heartbeat IPC: 3.22401 cumulative IPC: 3.22401 (Simulation time: 0 hr 1 min 58 sec) 
Heartbeat CPU 0 instructions: 20000000 cycles: 6201406 heartbeat IPC: 3.22614 cumulative IPC: 3.22508 (Simulation time: 0 hr 4 min 50 sec) 
Heartbeat CPU 0 instructions: 30000000 cycles: 9317580 heartbeat IPC: 3.20906 cumulative IPC: 3.21972 (Simulation time: 0 hr 7 min 53 sec) 
Heartbeat CPU 0 instructions: 40000000 cycles: 12439770 heartbeat IPC: 3.20288 cumulative IPC: 3.21549 (Simulation time: 0 hr 11 min 4 sec) 
Heartbeat CPU 0 instructions: 50000002 cycles: 15570303 heartbeat IPC: 3.19434 cumulative IPC: 3.21124 (Simulation time: 0 hr 14 min 20 sec) 

Warmup complete CPU 0 instructions: 50000002 cycles: 15570303 (Simulation time: 0 hr 14 min 20 sec) 

Heartbeat CPU 0 instructions: 60000000 cycles: 77533987 heartbeat IPC: 0.161385 cumulative IPC: 0.161385 (Simulation time: 0 hr 17 min 58 sec) 
Heartbeat CPU 0 instructions: 70000003 cycles: 142051246 heartbeat IPC: 0.154997 cumulative IPC: 0.158127 (Simulation time: 0 hr 21 min 44 sec) 
Heartbeat CPU 0 instructions: 80000000 cycles: 207110383 heartbeat IPC: 0.153706 cumulative IPC: 0.156625 (Simulation time: 0 hr 25 min 29 sec) 
Heartbeat CPU 0 instructions: 90000002 cycles: 270230740 heartbeat IPC: 0.158428 cumulative IPC: 0.157072 (Simulation time: 0 hr 29 min 18 sec) 
Heartbeat CPU 0 instructions: 100000000 cycles: 332899246 heartbeat IPC: 0.15957 cumulative IPC: 0.157565 (Simulation time: 0 hr 33 min 12 sec) 
Heartbeat CPU 0 instructions: 110000000 cycles: 395424083 heartbeat IPC: 0.159936 cumulative IPC: 0.157956 (Simulation time: 0 hr 37 min 8 sec) 
Heartbeat CPU 0 instructions: 120000000 cycles: 459986974 heartbeat IPC: 0.154888 cumulative IPC: 0.15751 (Simulation time: 0 hr 41 min 5 sec) 
Heartbeat CPU 0 instructions: 130000001 cycles: 526119574 heartbeat IPC: 0.151211 cumulative IPC: 0.156694 (Simulation time: 0 hr 45 min 3 sec) 
Heartbeat CPU 0 instructions: 140000000 cycles: 592091322 heartbeat IPC: 0.15158 cumulative IPC: 0.156109 (Simulation time: 0 hr 49 min 2 sec) 
Heartbeat CPU 0 instructions: 150000000 cycles: 654825393 heartbeat IPC: 0.159403 cumulative IPC: 0.156432 (Simulation time: 0 hr 53 min 7 sec) 
Finished CPU 0 instructions: 100000002 cycles: 639255091 cumulative IPC: 0.156432 (Simulation time: 0 hr 53 min 7 sec) 

ChampSim completed all CPUs

Region of Interest Statistics

CPU 0 cumulative IPC: 0.156432 instructions: 100000002 cycles: 639255091
ITLB TOTAL     ACCESS:   18026074  HIT:   18026074  MISS:          0  HIT %:        100  MISS %:          0   MPKI: 0
ITLB LOAD TRANSLATION ACCESS:   18026074  HIT:   18026074  MISS:          0  HIT %:        100  MISS %:          0   MPKI: 0
ITLB PREFETCH  REQUESTED:          0  ISSUED:          0  USEFUL:          0  USELESS:          0
ITLB USEFUL LOAD PREFETCHES:          0 PREFETCH ISSUED TO LOWER LEVEL:          0  ACCURACY: -nan
ITLB TIMELY PREFETCHES:          0 LATE PREFETCHES: 0 DROPPED PREFETCHES: 0
ITLB PREFETCHES SAME FILL-ORIGIN LEVEL: 0 DIFFERENT FILL-ORIGIN LEVEL: 0
ITLB AVERAGE MISS LATENCY: -nan cycles
ITLB RQ	ACCESS:   18240324	FORWARD:          0	MERGED:     214251	TO_CACHE:   18026073

DTLB TOTAL     ACCESS:   20870070  HIT:   15586036  MISS:    5284034  HIT %:    74.6813  MISS %:    25.3187   MPKI: 52.8403
DTLB LOAD TRANSLATION ACCESS:   20870070  HIT:   15586036  MISS:    5284034  HIT %:    74.6813  MISS %:    25.3187   MPKI: 52.8403
DTLB PREFETCH  REQUESTED:          0  ISSUED:          0  USEFUL:          0  USELESS:          0
DTLB USEFUL LOAD PREFETCHES:          0 PREFETCH ISSUED TO LOWER LEVEL:          0  ACCURACY: -nan
DTLB TIMELY PREFETCHES:          0 LATE PREFETCHES: 0 DROPPED PREFETCHES: 0
DTLB PREFETCHES SAME FILL-ORIGIN LEVEL: 0 DIFFERENT FILL-ORIGIN LEVEL: 0
DTLB AVERAGE MISS LATENCY: 9.67247 cycles
DTLB RQ	ACCESS:   21947669	FORWARD:          0	MERGED:    1058257	TO_CACHE:   20889412

STLB TOTAL     ACCESS:   12347363  HIT:   12339371  MISS:       7992  HIT %:    99.9353  MISS %:  0.0647264   MPKI: 0.07992
STLB LOAD TRANSLATION ACCESS:    5284034  HIT:    5276042  MISS:       7992  HIT %:    99.8488  MISS %:   0.151248   MPKI: 0.07992
STLB TRANSLATION FROM L1D PREFETCHER ACCESS:    7063329  HIT:    7063329  MISS:          0  HIT %:        100  MISS %:          0   MPKI: 0
STLB PREFETCH  REQUESTED:          0  ISSUED:          0  USEFUL:          0  USELESS:          0
STLB USEFUL LOAD PREFETCHES:          0 PREFETCH ISSUED TO LOWER LEVEL:          0  ACCURACY: -nan
STLB TIMELY PREFETCHES:          0 LATE PREFETCHES: 0 DROPPED PREFETCHES: 0
STLB PREFETCHES SAME FILL-ORIGIN LEVEL: 0 DIFFERENT FILL-ORIGIN LEVEL: 0
STLB AVERAGE MISS LATENCY: 138.792 cycles
STLB RQ	ACCESS:   13482741	FORWARD:          0	MERGED:    1135377	TO_CACHE:   12347364

STLB Hit, L1D data hit: 0
STLB Hit, L2C data hit: 0
STLB Hit, LLC data hit: 0
STLB Hit, LLC data miss: 0
STLB STLB hints to L2: 0
L1D TOTAL     ACCESS:   29685271  HIT:   13693339  MISS:   15991932  HIT %:    46.1284  MISS %:    53.8716   MPKI: 159.919
L1D LOAD      ACCESS:   21346583  HIT:   13226410  MISS:    8120173  HIT %:    61.9603  MISS %:    38.0397   MPKI: 81.2017
L1D RFO       ACCESS:     179097  HIT:     179097  MISS:          0  HIT %:        100  MISS %:          0   MPKI: 0
L1D PREFETCH  ACCESS:    8159591  HIT:     287832  MISS:    7871759  HIT %:    3.52753  MISS %:    96.4725   MPKI: 78.7176
AGUS PREFETCH L1 MISS: 0
L1D PREFETCH  REQUESTED:   16920289  ISSUED:   16424581  USEFUL:     313086  USELESS:    7558689
L1D USEFUL LOAD PREFETCHES:     313086 PREFETCH ISSUED TO LOWER LEVEL:    7878746  ACCURACY: 3.9738
L1D TIMELY PREFETCHES:     313086 LATE PREFETCHES: 6987 DROPPED PREFETCHES: 0
L1D PREFETCHES SAME FILL-ORIGIN LEVEL: 7878746 DIFFERENT FILL-ORIGIN LEVEL: 0
L1D AVERAGE MISS LATENCY: 70.3055 cycles
L1D RQ	ACCESS:   28699619	FORWARD:          0	MERGED:    6927898	TO_CACHE:   21768572
L1D WQ	ACCESS:     179097	FORWARD:       3149	MERGED:          0	TO_CACHE:     179097
L1D PQ	ACCESS:    8225875	FORWARD:          0	MERGED:      27169	TO_CACHE:    8198706

L1D UNIQUE REGIONS ACCESSED: 0
L1D REGIONS CONFLICTS: 0
L1D Cross Page Prefetch Requests: 10367671
L1D Same Page Prefetch Requests: 1716884
L1D ROI Sum of L1D PQ occupancy: 115536979
L1D PREFETCHES PUSHED FROM L2C: 0
L1I TOTAL     ACCESS:   18240325  HIT:   18240325  MISS:          0  HIT %:        100  MISS %:          0   MPKI: 0
L1I LOAD      ACCESS:   18240325  HIT:   18240325  MISS:          0  HIT %:        100  MISS %:          0   MPKI: 0
L1I PREFETCH  REQUESTED:          0  ISSUED:          0  USEFUL:          0  USELESS:          0
L1I USEFUL LOAD PREFETCHES:          0 PREFETCH ISSUED TO LOWER LEVEL:          0  ACCURACY: -nan
L1I TIMELY PREFETCHES:          0 LATE PREFETCHES: 0 DROPPED PREFETCHES: 0
L1I PREFETCHES SAME FILL-ORIGIN LEVEL: 0 DIFFERENT FILL-ORIGIN LEVEL: 0
L1I AVERAGE MISS LATENCY: -nan cycles
L1I RQ	ACCESS:   28382838	FORWARD:          0	MERGED:   10142514	TO_CACHE:   18240324

BTB TOTAL     ACCESS:   20694155  HIT:   20694150  MISS:          5  HIT %:        100  MISS %: 2.41614e-05   MPKI: 5e-05
BTB BRANCH_DIRECT_JUMP	ACCESS:          0  HIT:          0  MISS:          0
BTB BRANCH_INDIRECT	ACCESS:          0  HIT:          0  MISS:          0
BTB BRANCH_CONDITIONAL	ACCESS:   20694155  HIT:   20694150  MISS:          5
BTB BRANCH_DIRECT_CALL	ACCESS:          0  HIT:          0  MISS:          0
BTB BRANCH_INDIRECT_CALL	ACCESS:          0  HIT:          0  MISS:          0
BTB BRANCH_RETURN	ACCESS:          0  HIT:          0  MISS:          0
BTB BRANCH_OTHER ACCESS:          0  HIT:          0  MISS:          0

L2C TOTAL     ACCESS:   16142652  HIT:    5465534  MISS:   10677118  HIT %:    33.8577  MISS %:    66.1423   MPKI: 106.771
L2C LOAD      ACCESS:    8113184  HIT:    2233559  MISS:    5879625  HIT %:      27.53  MISS %:      72.47   MPKI: 58.7962
L2C DATA LOAD MPKI: 58.7962
L2C INSTRUCTION LOAD MPKI: 0
L2C PREFETCH  ACCESS:    7878744  HIT:    3082962  MISS:    4795782  HIT %:    39.1301  MISS %:    60.8699   MPKI: 47.9578
AGUS PREFETCH L1 MISS: 0
L2C DATA PREFETCH MPKI: 47.9578
L2C INSTRUCTION PREFETCH MPKI: 0
L2C WRITEBACK ACCESS:     142732  HIT:     142472  MISS:        260  HIT %:    99.8178  MISS %:    0.18216   MPKI: 0.0026
L2C LOAD TRANSLATION ACCESS:       7992  HIT:       6541  MISS:       1451  HIT %:    81.8443  MISS %:    18.1557   MPKI: 0.01451
L2C PREFETCH  REQUESTED:          0  ISSUED:          0  USEFUL:     422935  USELESS:    4372794
L2C USEFUL LOAD PREFETCHES:     422935 PREFETCH ISSUED TO LOWER LEVEL:    4795782  ACCURACY: 8.8189
L2C TIMELY PREFETCHES:     422935 LATE PREFETCHES: 0 DROPPED PREFETCHES: 0
L2C PREFETCHES SAME FILL-ORIGIN LEVEL: 0 DIFFERENT FILL-ORIGIN LEVEL: 0
L2C AVERAGE MISS LATENCY: 82.5396 cycles
L2C RQ	ACCESS:    8121177	FORWARD:          0	MERGED:          0	TO_CACHE:    8121177
L2C WQ	ACCESS:     142732	FORWARD:          2	MERGED:          0	TO_CACHE:     142732
L2C PQ	ACCESS:    7878746	FORWARD:          0	MERGED:          0	TO_CACHE:    7878744

L2C Instructions Evicting Data 0
L2C Translations Evicting Data 1451
L2C Data Evicting Data 10673956
L2C Instructions Evicting Instructions 0
L2C Translations Evicting Instructions 0
L2C Data Evicting Instructions 0
L2C Instructions Evicting Translations 0
L2C Translations Evicting Translations 0
L2C Data Evicting Translations 1451
L2C Dense regions hint from L2: 0
PSCL5 TOTAL     ACCESS:       7992  HIT:       7992  MISS:          0  HIT %:        100  MISS %:          0   MPKI: 0
PSCL5 LOAD TRANSLATION ACCESS:       7992  HIT:       7992  MISS:          0  HIT %:        100  MISS %:          0   MPKI: 0
PSCL5 PREFETCH  REQUESTED:          0  ISSUED:          0  USEFUL:          0  USELESS:          0
PSCL5 USEFUL LOAD PREFETCHES:          0 PREFETCH ISSUED TO LOWER LEVEL:          0  ACCURACY: -nan
PSCL5 TIMELY PREFETCHES:          0 LATE PREFETCHES: 0 DROPPED PREFETCHES: 0
PSCL5 PREFETCHES SAME FILL-ORIGIN LEVEL: 0 DIFFERENT FILL-ORIGIN LEVEL: 0

PSCL4 TOTAL     ACCESS:       7992  HIT:       7992  MISS:          0  HIT %:        100  MISS %:          0   MPKI: 0
PSCL4 LOAD TRANSLATION ACCESS:       7992  HIT:       7992  MISS:          0  HIT %:        100  MISS %:          0   MPKI: 0
PSCL4 PREFETCH  REQUESTED:          0  ISSUED:          0  USEFUL:          0  USELESS:          0
PSCL4 USEFUL LOAD PREFETCHES:          0 PREFETCH ISSUED TO LOWER LEVEL:          0  ACCURACY: -nan
PSCL4 TIMELY PREFETCHES:          0 LATE PREFETCHES: 0 DROPPED PREFETCHES: 0
PSCL4 PREFETCHES SAME FILL-ORIGIN LEVEL: 0 DIFFERENT FILL-ORIGIN LEVEL: 0

PSCL3 TOTAL     ACCESS:       7992  HIT:       7992  MISS:          0  HIT %:        100  MISS %:          0   MPKI: 0
PSCL3 LOAD TRANSLATION ACCESS:       7992  HIT:       7992  MISS:          0  HIT %:        100  MISS %:          0   MPKI: 0
PSCL3 PREFETCH  REQUESTED:          0  ISSUED:          0  USEFUL:          0  USELESS:          0
PSCL3 USEFUL LOAD PREFETCHES:          0 PREFETCH ISSUED TO LOWER LEVEL:          0  ACCURACY: -nan
PSCL3 TIMELY PREFETCHES:          0 LATE PREFETCHES: 0 DROPPED PREFETCHES: 0
PSCL3 PREFETCHES SAME FILL-ORIGIN LEVEL: 0 DIFFERENT FILL-ORIGIN LEVEL: 0

PSCL2 TOTAL     ACCESS:       7992  HIT:       7976  MISS:         16  HIT %:    99.7998  MISS %:     0.2002   MPKI: 0.00016
PSCL2 LOAD TRANSLATION ACCESS:       7992  HIT:       7976  MISS:         16  HIT %:    99.7998  MISS %:     0.2002   MPKI: 0.00016
PSCL2 PREFETCH  REQUESTED:          0  ISSUED:          0  USEFUL:          0  USELESS:          0
PSCL2 USEFUL LOAD PREFETCHES:          0 PREFETCH ISSUED TO LOWER LEVEL:          0  ACCURACY: -nan
PSCL2 TIMELY PREFETCHES:          0 LATE PREFETCHES: 0 DROPPED PREFETCHES: 0
PSCL2 PREFETCHES SAME FILL-ORIGIN LEVEL: 0 DIFFERENT FILL-ORIGIN LEVEL: 0

LLC TOTAL     ACCESS:   10819533  HIT:    7424762  MISS:    3394771  HIT %:    68.6237  MISS %:    31.3763   MPKI: 33.9477
LLC LOAD      ACCESS:    5879625  HIT:    3384896  MISS:    2494729  HIT %:    57.5699  MISS %:    42.4301   MPKI: 24.9473
LLC PREFETCH  ACCESS:    4795782  HIT:    3896896  MISS:     898886  HIT %:    81.2567  MISS %:    18.7433   MPKI: 8.98886
AGUS PREFETCH L1 MISS: 0
LLC WRITEBACK ACCESS:     142675  HIT:     142552  MISS:        123  HIT %:    99.9138  MISS %:  0.0862099   MPKI: 0.00123
LLC LOAD TRANSLATION ACCESS:       1451  HIT:        418  MISS:       1033  HIT %:    28.8077  MISS %:    71.1923   MPKI: 0.01033
LLC PREFETCH  REQUESTED:          0  ISSUED:          0  USEFUL:     289326  USELESS:     609726
LLC USEFUL LOAD PREFETCHES:     289326 PREFETCH ISSUED TO LOWER LEVEL:     898886  ACCURACY: 32.1872
LLC TIMELY PREFETCHES:     289326 LATE PREFETCHES: 0 DROPPED PREFETCHES: 0
LLC PREFETCHES SAME FILL-ORIGIN LEVEL: 0 DIFFERENT FILL-ORIGIN LEVEL: 0
LLC AVERAGE MISS LATENCY: 165.17 cycles
LLC RQ	ACCESS:    5881077	FORWARD:          0	MERGED:          0	TO_CACHE:    5881077
LLC WQ	ACCESS:     142675	FORWARD:          0	MERGED:          0	TO_CACHE:     142675
LLC PQ	ACCESS:    4795782	FORWARD:          0	MERGED:          0	TO_CACHE:    4795782

LLC Dense regions hint to LLC: 0

RAW hits: 23660
Loads Generated: 28723280
Loads sent to L1D: 28699619
Stores Generated: 179097
Stores sent to L1D: 179097
Major fault: 0 Minor fault: 12771
Allocated PAGES: 12771
Prefetcher final stats
Training Unit Size: 64
Addr table size: 805721 805721


Triggers: 12006914
No Prediction: 1810256 15.0768
Stream end: 10124819
No translation: 1606937862 13383.4
Predictions: 12084555 100.647


Stream divergence: 2708230 22.5556
Stream divergence -- new stream: 0

DRAM Statistics
 CHANNEL 0
 RQ ROW_BUFFER_HIT:     615423  ROW_BUFFER_MISS:    2779213
 DBUS_CONGESTED:        347
 WQ ROW_BUFFER_HIT:      51680  ROW_BUFFER_MISS:      88953  FULL:          0

 AVG_CONGESTED_CYCLE: 4
 All warmup complete: 2
Channel 0 Bank busy for read cycles: 0
Channel 0 Bank busy for write cycles: 0
Channel 0
Rank 0
0banks busy for read cycles: 323159898
0banks busy for write cycles: 122399
1banks busy for read cycles: 189308916
1banks busy for write cycles: 23657169
2banks busy for read cycles: 61718491
2banks busy for write cycles: 2238833
3banks busy for read cycles: 25135621
3banks busy for write cycles: 263429
4banks busy for read cycles: 9608468
4banks busy for write cycles: 32293
5banks busy for read cycles: 3104460
5banks busy for write cycles: 3645
6banks busy for read cycles: 768930
6banks busy for write cycles: 278
7banks busy for read cycles: 122354
7banks busy for write cycles: 345
8banks busy for read cycles: 9563
8banks busy for write cycles: 0

CPU 0 Branch Prediction Accuracy: 86.543% MPKI: 27.9797 Average ROB Occupancy at Mispredict: 14.4934
Branch types
NOT_BRANCH: 79207870 79.2079%
BRANCH_DIRECT_JUMP: 0 0%
BRANCH_INDIRECT: 0 0%
BRANCH_CONDITIONAL: 20791954 20.792%
BRANCH_DIRECT_CALL: 0 0%
BRANCH_INDIRECT_CALL: 0 0%
BRANCH_RETURN: 0 0%
BRANCH_OTHER: 0 0%

DRAM PAGES: 1048576
Allocated PAGES: 12771
