
*** ChampSim Multicore Out-of-Order Simulator ***

Warmup Instructions: 50000000
Simulation Instructions: 100000000
Number of CPUs: 1
LLC sets: 2048
LLC ways: 16
Off-chip DRAM Size: 4096 MB Channels: 1 Width: 64-bit Data Rate: 6400 MT/s
CPU 0 runs ./traces/GAP/pr-10.trace.gz
.gz
CPU 0 Bimodal branch predictor
BTB has LRU replacement policy
ITLB has LRU replacement policy
DTLB has LRU replacement policy
STLB has LRU replacement policy
L1I has LRU replacement policy
L1D has LRU replacement policy
Ideal ISB Prefetching
L2C has LRU replacement policy
LLC has LRU replacement policy
Heartbeat CPU 0 instructions: 10000002 cycles: 3333434 heartbeat IPC: 2.99991 cumulative IPC: 2.99991 (Simulation time: 0 hr 0 min 19 sec) 
Heartbeat CPU 0 instructions: 20000000 cycles: 9701268 heartbeat IPC: 1.57039 cumulative IPC: 2.06159 (Simulation time: 0 hr 3 min 17 sec) 
Heartbeat CPU 0 instructions: 30000003 cycles: 16604862 heartbeat IPC: 1.44852 cumulative IPC: 1.8067 (Simulation time: 0 hr 7 min 7 sec) 
Heartbeat CPU 0 instructions: 40000000 cycles: 23496845 heartbeat IPC: 1.45096 cumulative IPC: 1.70236 (Simulation time: 0 hr 10 min 59 sec) 
Heartbeat CPU 0 instructions: 50000000 cycles: 30362512 heartbeat IPC: 1.45652 cumulative IPC: 1.64677 (Simulation time: 0 hr 14 min 55 sec) 

Warmup complete CPU 0 instructions: 50000002 cycles: 30362513 (Simulation time: 0 hr 14 min 55 sec) 

Heartbeat CPU 0 instructions: 60000000 cycles: 223551619 heartbeat IPC: 0.0517628 cumulative IPC: 0.0517627 (Simulation time: 0 hr 20 min 59 sec) 
Heartbeat CPU 0 instructions: 70000000 cycles: 416541270 heartbeat IPC: 0.0518163 cumulative IPC: 0.0517895 (Simulation time: 0 hr 27 min 5 sec) 
Heartbeat CPU 0 instructions: 80000000 cycles: 609209846 heartbeat IPC: 0.0519026 cumulative IPC: 0.0518271 (Simulation time: 0 hr 33 min 12 sec) 
Heartbeat CPU 0 instructions: 90000000 cycles: 801807356 heartbeat IPC: 0.0519218 cumulative IPC: 0.0518508 (Simulation time: 0 hr 39 min 17 sec) 
Heartbeat CPU 0 instructions: 100000000 cycles: 995437008 heartbeat IPC: 0.051645 cumulative IPC: 0.0518095 (Simulation time: 0 hr 45 min 30 sec) 
Heartbeat CPU 0 instructions: 110000002 cycles: 1187698130 heartbeat IPC: 0.0520126 cumulative IPC: 0.0518432 (Simulation time: 0 hr 51 min 40 sec) 
Heartbeat CPU 0 instructions: 120000000 cycles: 1380144000 heartbeat IPC: 0.0519627 cumulative IPC: 0.0518602 (Simulation time: 0 hr 57 min 52 sec) 
Heartbeat CPU 0 instructions: 130000001 cycles: 1573406147 heartbeat IPC: 0.0517432 cumulative IPC: 0.0518456 (Simulation time: 1 hr 4 min 12 sec) 
Heartbeat CPU 0 instructions: 140000000 cycles: 1765460552 heartbeat IPC: 0.0520686 cumulative IPC: 0.0518703 (Simulation time: 1 hr 10 min 23 sec) 
Heartbeat CPU 0 instructions: 150000000 cycles: 1958550922 heartbeat IPC: 0.0517892 cumulative IPC: 0.0518622 (Simulation time: 1 hr 16 min 37 sec) 
Finished CPU 0 instructions: 100000003 cycles: 1928188446 cumulative IPC: 0.0518622 (Simulation time: 1 hr 16 min 37 sec) 

ChampSim completed all CPUs

Region of Interest Statistics

CPU 0 cumulative IPC: 0.0518622 instructions: 100000003 cycles: 1928188446
ITLB TOTAL     ACCESS:   31701647  HIT:   31701647  MISS:          0  HIT %:        100  MISS %:          0   MPKI: 0
ITLB LOAD TRANSLATION ACCESS:   31701647  HIT:   31701647  MISS:          0  HIT %:        100  MISS %:          0   MPKI: 0
ITLB PREFETCH  REQUESTED:          0  ISSUED:          0  USEFUL:          0  USELESS:          0
ITLB USEFUL LOAD PREFETCHES:          0 PREFETCH ISSUED TO LOWER LEVEL:          0  ACCURACY: -nan
ITLB TIMELY PREFETCHES:          0 LATE PREFETCHES: 0 DROPPED PREFETCHES: 0
ITLB PREFETCHES SAME FILL-ORIGIN LEVEL: 0 DIFFERENT FILL-ORIGIN LEVEL: 0
ITLB AVERAGE MISS LATENCY: -nan cycles
ITLB RQ	ACCESS:   32238577	FORWARD:          0	MERGED:     536930	TO_CACHE:   31701647

DTLB TOTAL     ACCESS:   32019368  HIT:   19788320  MISS:   12231048  HIT %:    61.8011  MISS %:    38.1989   MPKI: 122.31
DTLB LOAD TRANSLATION ACCESS:   32019368  HIT:   19788320  MISS:   12231048  HIT %:    61.8011  MISS %:    38.1989   MPKI: 122.31
DTLB PREFETCH  REQUESTED:          0  ISSUED:          0  USEFUL:          0  USELESS:          0
DTLB USEFUL LOAD PREFETCHES:          0 PREFETCH ISSUED TO LOWER LEVEL:          0  ACCURACY: -nan
DTLB TIMELY PREFETCHES:          0 LATE PREFETCHES: 0 DROPPED PREFETCHES: 0
DTLB PREFETCHES SAME FILL-ORIGIN LEVEL: 0 DIFFERENT FILL-ORIGIN LEVEL: 0
DTLB AVERAGE MISS LATENCY: 9.21635 cycles
DTLB RQ	ACCESS:   32341458	FORWARD:          0	MERGED:     317805	TO_CACHE:   32023653

STLB TOTAL     ACCESS:   12231048  HIT:   12211824  MISS:      19224  HIT %:    99.8428  MISS %:   0.157174   MPKI: 0.19224
STLB LOAD TRANSLATION ACCESS:   12231048  HIT:   12211824  MISS:      19224  HIT %:    99.8428  MISS %:   0.157174   MPKI: 0.19224
STLB PREFETCH  REQUESTED:          0  ISSUED:          0  USEFUL:          0  USELESS:          0
STLB USEFUL LOAD PREFETCHES:          0 PREFETCH ISSUED TO LOWER LEVEL:          0  ACCURACY: -nan
STLB TIMELY PREFETCHES:          0 LATE PREFETCHES: 0 DROPPED PREFETCHES: 0
STLB PREFETCHES SAME FILL-ORIGIN LEVEL: 0 DIFFERENT FILL-ORIGIN LEVEL: 0
STLB AVERAGE MISS LATENCY: 131.736 cycles
STLB RQ	ACCESS:   12231048	FORWARD:          0	MERGED:          0	TO_CACHE:   12231048

STLB Hit, L1D data hit: 0
STLB Hit, L2C data hit: 0
STLB Hit, LLC data hit: 0
STLB Hit, LLC data miss: 0
STLB STLB hints to L2: 0
L1D TOTAL     ACCESS:   30253403  HIT:   12086028  MISS:   18167375  HIT %:    39.9493  MISS %:    60.0507   MPKI: 181.674
L1D LOAD      ACCESS:   29050595  HIT:   10883220  MISS:   18167375  HIT %:     37.463  MISS %:     62.537   MPKI: 181.674
L1D RFO       ACCESS:    1202808  HIT:    1202808  MISS:          0  HIT %:        100  MISS %:          0   MPKI: 0
L1D PREFETCH  REQUESTED:          0  ISSUED:          0  USEFUL:          0  USELESS:          0
L1D USEFUL LOAD PREFETCHES:          0 PREFETCH ISSUED TO LOWER LEVEL:          0  ACCURACY: -nan
L1D TIMELY PREFETCHES:          0 LATE PREFETCHES: 0 DROPPED PREFETCHES: 0
L1D PREFETCHES SAME FILL-ORIGIN LEVEL: 0 DIFFERENT FILL-ORIGIN LEVEL: 0
L1D AVERAGE MISS LATENCY: 97.4956 cycles
L1D RQ	ACCESS:   39370675	FORWARD:          0	MERGED:    8232025	TO_CACHE:   31138650
L1D WQ	ACCESS:    1202808	FORWARD:          0	MERGED:          0	TO_CACHE:    1202808

L1D UNIQUE REGIONS ACCESSED: 0
L1D REGIONS CONFLICTS: 0
L1D Cross Page Prefetch Requests: 0
L1D Same Page Prefetch Requests: 0
L1D ROI Sum of L1D PQ occupancy: 0
L1D PREFETCHES PUSHED FROM L2C: 0
L1I TOTAL     ACCESS:   32238577  HIT:   32238577  MISS:          0  HIT %:        100  MISS %:          0   MPKI: 0
L1I LOAD      ACCESS:   32238577  HIT:   32238577  MISS:          0  HIT %:        100  MISS %:          0   MPKI: 0
L1I PREFETCH  REQUESTED:          0  ISSUED:          0  USEFUL:          0  USELESS:          0
L1I USEFUL LOAD PREFETCHES:          0 PREFETCH ISSUED TO LOWER LEVEL:          0  ACCURACY: -nan
L1I TIMELY PREFETCHES:          0 LATE PREFETCHES: 0 DROPPED PREFETCHES: 0
L1I PREFETCHES SAME FILL-ORIGIN LEVEL: 0 DIFFERENT FILL-ORIGIN LEVEL: 0
L1I AVERAGE MISS LATENCY: -nan cycles
L1I RQ	ACCESS:   49202242	FORWARD:          0	MERGED:   16963665	TO_CACHE:   32238577

BTB TOTAL     ACCESS:   19083929  HIT:   19083926  MISS:          3  HIT %:        100  MISS %:  1.572e-05   MPKI: 3e-05
BTB BRANCH_DIRECT_JUMP	ACCESS:          0  HIT:          0  MISS:          0
BTB BRANCH_INDIRECT	ACCESS:          0  HIT:          0  MISS:          0
BTB BRANCH_CONDITIONAL	ACCESS:   19083929  HIT:   19083926  MISS:          3
BTB BRANCH_DIRECT_CALL	ACCESS:          0  HIT:          0  MISS:          0
BTB BRANCH_INDIRECT_CALL	ACCESS:          0  HIT:          0  MISS:          0
BTB BRANCH_RETURN	ACCESS:          0  HIT:          0  MISS:          0
BTB BRANCH_OTHER ACCESS:          0  HIT:          0  MISS:          0

L2C TOTAL     ACCESS:   19746607  HIT:    6410728  MISS:   13335879  HIT %:     32.465  MISS %:     67.535   MPKI: 133.359
L2C LOAD      ACCESS:   18167375  HIT:    4835154  MISS:   13332221  HIT %:    26.6145  MISS %:    73.3855   MPKI: 133.322
L2C DATA LOAD MPKI: 133.322
L2C INSTRUCTION LOAD MPKI: 0
L2C PREFETCH  ACCESS:    1514860  HIT:    1514860  MISS:          0  HIT %:        100  MISS %:          0   MPKI: 0
AGUS PREFETCH L1 MISS: 0
L2C DATA PREFETCH MPKI: 0
L2C INSTRUCTION PREFETCH MPKI: 0
L2C WRITEBACK ACCESS:      45143  HIT:      45115  MISS:         28  HIT %:     99.938  MISS %:  0.0620251   MPKI: 0.00028
L2C LOAD TRANSLATION ACCESS:      19229  HIT:      15599  MISS:       3630  HIT %:    81.1223  MISS %:    18.8777   MPKI: 0.0363
L2C PREFETCH  REQUESTED:   10517712  ISSUED:   10517712  USEFUL:          0  USELESS:          0
L2C USEFUL LOAD PREFETCHES:          0 PREFETCH ISSUED TO LOWER LEVEL:    9002816  ACCURACY: 0
L2C TIMELY PREFETCHES:          0 LATE PREFETCHES: 0 DROPPED PREFETCHES: 0
L2C PREFETCHES SAME FILL-ORIGIN LEVEL: 0 DIFFERENT FILL-ORIGIN LEVEL: 9002816
L2C AVERAGE MISS LATENCY: 112.396 cycles
L2C RQ	ACCESS:   18186603	FORWARD:          0	MERGED:          0	TO_CACHE:   18186603
L2C WQ	ACCESS:      45143	FORWARD:          0	MERGED:          0	TO_CACHE:      45143
L2C PQ	ACCESS:   10517712	FORWARD:          0	MERGED:         18	TO_CACHE:   10517694

L2C Instructions Evicting Data 0
L2C Translations Evicting Data 3630
L2C Data Evicting Data 13328593
L2C Instructions Evicting Instructions 0
L2C Translations Evicting Instructions 0
L2C Data Evicting Instructions 0
L2C Instructions Evicting Translations 0
L2C Translations Evicting Translations 0
L2C Data Evicting Translations 3628
L2C Dense regions hint from L2: 0
PSCL5 TOTAL     ACCESS:      19224  HIT:      19224  MISS:          0  HIT %:        100  MISS %:          0   MPKI: 0
PSCL5 LOAD TRANSLATION ACCESS:      19224  HIT:      19224  MISS:          0  HIT %:        100  MISS %:          0   MPKI: 0
PSCL5 PREFETCH  REQUESTED:          0  ISSUED:          0  USEFUL:          0  USELESS:          0
PSCL5 USEFUL LOAD PREFETCHES:          0 PREFETCH ISSUED TO LOWER LEVEL:          0  ACCURACY: -nan
PSCL5 TIMELY PREFETCHES:          0 LATE PREFETCHES: 0 DROPPED PREFETCHES: 0
PSCL5 PREFETCHES SAME FILL-ORIGIN LEVEL: 0 DIFFERENT FILL-ORIGIN LEVEL: 0

PSCL4 TOTAL     ACCESS:      19224  HIT:      19224  MISS:          0  HIT %:        100  MISS %:          0   MPKI: 0
PSCL4 LOAD TRANSLATION ACCESS:      19224  HIT:      19224  MISS:          0  HIT %:        100  MISS %:          0   MPKI: 0
PSCL4 PREFETCH  REQUESTED:          0  ISSUED:          0  USEFUL:          0  USELESS:          0
PSCL4 USEFUL LOAD PREFETCHES:          0 PREFETCH ISSUED TO LOWER LEVEL:          0  ACCURACY: -nan
PSCL4 TIMELY PREFETCHES:          0 LATE PREFETCHES: 0 DROPPED PREFETCHES: 0
PSCL4 PREFETCHES SAME FILL-ORIGIN LEVEL: 0 DIFFERENT FILL-ORIGIN LEVEL: 0

PSCL3 TOTAL     ACCESS:      19224  HIT:      19224  MISS:          0  HIT %:        100  MISS %:          0   MPKI: 0
PSCL3 LOAD TRANSLATION ACCESS:      19224  HIT:      19224  MISS:          0  HIT %:        100  MISS %:          0   MPKI: 0
PSCL3 PREFETCH  REQUESTED:          0  ISSUED:          0  USEFUL:          0  USELESS:          0
PSCL3 USEFUL LOAD PREFETCHES:          0 PREFETCH ISSUED TO LOWER LEVEL:          0  ACCURACY: -nan
PSCL3 TIMELY PREFETCHES:          0 LATE PREFETCHES: 0 DROPPED PREFETCHES: 0
PSCL3 PREFETCHES SAME FILL-ORIGIN LEVEL: 0 DIFFERENT FILL-ORIGIN LEVEL: 0

PSCL2 TOTAL     ACCESS:      19224  HIT:      19185  MISS:         39  HIT %:    99.7971  MISS %:   0.202871   MPKI: 0.00039
PSCL2 LOAD TRANSLATION ACCESS:      19224  HIT:      19185  MISS:         39  HIT %:    99.7971  MISS %:   0.202871   MPKI: 0.00039
PSCL2 PREFETCH  REQUESTED:          0  ISSUED:          0  USEFUL:          0  USELESS:          0
PSCL2 USEFUL LOAD PREFETCHES:          0 PREFETCH ISSUED TO LOWER LEVEL:          0  ACCURACY: -nan
PSCL2 TIMELY PREFETCHES:          0 LATE PREFETCHES: 0 DROPPED PREFETCHES: 0
PSCL2 PREFETCHES SAME FILL-ORIGIN LEVEL: 0 DIFFERENT FILL-ORIGIN LEVEL: 0

LLC TOTAL     ACCESS:   22365606  HIT:   11978097  MISS:   10387509  HIT %:    53.5559  MISS %:    46.4441   MPKI: 103.875
LLC LOAD      ACCESS:   13332221  HIT:    6489980  MISS:    6842241  HIT %:    48.6789  MISS %:    51.3211   MPKI: 68.4224
LLC PREFETCH  ACCESS:    8991918  HIT:    5449237  MISS:    3542681  HIT %:    60.6015  MISS %:    39.3985   MPKI: 35.4268
AGUS PREFETCH L1 MISS: 0
LLC WRITEBACK ACCESS:      37837  HIT:      37776  MISS:         61  HIT %:    99.8388  MISS %:   0.161218   MPKI: 0.00061
LLC LOAD TRANSLATION ACCESS:       3630  HIT:       1104  MISS:       2526  HIT %:    30.4132  MISS %:    69.5868   MPKI: 0.02526
LLC PREFETCH  REQUESTED:          0  ISSUED:          0  USEFUL:    1069117  USELESS:    2473619
LLC USEFUL LOAD PREFETCHES:    1069117 PREFETCH ISSUED TO LOWER LEVEL:    3549182  ACCURACY: 30.1229
LLC TIMELY PREFETCHES:    1069117 LATE PREFETCHES: 6501 DROPPED PREFETCHES: 0
LLC PREFETCHES SAME FILL-ORIGIN LEVEL: 3549182 DIFFERENT FILL-ORIGIN LEVEL: 0
LLC AVERAGE MISS LATENCY: 166.613 cycles
LLC RQ	ACCESS:   13335850	FORWARD:          0	MERGED:          0	TO_CACHE:   13335850
LLC WQ	ACCESS:      37837	FORWARD:          0	MERGED:          0	TO_CACHE:      37837
LLC PQ	ACCESS:    9002816	FORWARD:          0	MERGED:          0	TO_CACHE:    9002816

LLC Dense regions hint to LLC: 0

RAW hits: 0
Loads Generated: 39370676
Loads sent to L1D: 39370675
Stores Generated: 1202808
Stores sent to L1D: 1202808
Major fault: 0 Minor fault: 28423
Allocated PAGES: 28423
Prefetcher final stats
Training Unit Size: 67
Addr table size: 1805146 1805146


Triggers: 18716367
No Prediction: 3353404 17.917
Stream end: 10055489
No translation: 1634579538 8733.42
Predictions: 14623109 78.1301


Stream divergence: 4198268 22.431
Stream divergence -- new stream: 0

DRAM Statistics
 CHANNEL 0
 RQ ROW_BUFFER_HIT:    1124097  ROW_BUFFER_MISS:    9263351
 DBUS_CONGESTED:         61
 WQ ROW_BUFFER_HIT:      11056  ROW_BUFFER_MISS:      26597  FULL:          0

 AVG_CONGESTED_CYCLE: 5
 All warmup complete: 2
Channel 0 Bank busy for read cycles: 0
Channel 0 Bank busy for write cycles: 0
Channel 0
Rank 0
0banks busy for read cycles: 898687892
0banks busy for write cycles: 36170
1banks busy for read cycles: 686546752
1banks busy for write cycles: 8235203
2banks busy for read cycles: 252447107
2banks busy for write cycles: 270127
3banks busy for read cycles: 74215381
3banks busy for write cycles: 9825
4banks busy for read cycles: 7094265
4banks busy for write cycles: 935
5banks busy for read cycles: 624776
5banks busy for write cycles: 31
6banks busy for read cycles: 19559
6banks busy for write cycles: 0
7banks busy for read cycles: 421
7banks busy for write cycles: 0
8banks busy for read cycles: 3
8banks busy for write cycles: 0

CPU 0 Branch Prediction Accuracy: 96.2997% MPKI: 7.06157 Average ROB Occupancy at Mispredict: 115.405
Branch types
NOT_BRANCH: 80916077 80.9161%
BRANCH_DIRECT_JUMP: 0 0%
BRANCH_INDIRECT: 0 0%
BRANCH_CONDITIONAL: 19083930 19.0839%
BRANCH_DIRECT_CALL: 0 0%
BRANCH_INDIRECT_CALL: 0 0%
BRANCH_RETURN: 0 0%
BRANCH_OTHER: 0 0%

DRAM PAGES: 1048576
Allocated PAGES: 28423
