
*** ChampSim Multicore Out-of-Order Simulator ***

Warmup Instructions: 50000000
Simulation Instructions: 100000000
Number of CPUs: 1
LLC sets: 2048
LLC ways: 16
Off-chip DRAM Size: 4096 MB Channels: 1 Width: 64-bit Data Rate: 6400 MT/s
CPU 0 runs ./traces/GAP/SUBSET/pr-5.trace.gz
.gz
CPU 0 Bimodal branch predictor
BTB has LRU replacement policy
ITLB has LRU replacement policy
DTLB has LRU replacement policy
STLB has LRU replacement policy
L1I has LRU replacement policy
L1D has LRU replacement policy
L2C has LRU replacement policy
LLC has LRU replacement policy
Heartbeat CPU 0 instructions: 10000000 cycles: 3333428 heartbeat IPC: 2.99991 cumulative IPC: 2.99991 (Simulation time: 0 hr 3 min 21 sec) 
Heartbeat CPU 0 instructions: 20000000 cycles: 9977082 heartbeat IPC: 1.5052 cumulative IPC: 2.00459 (Simulation time: 0 hr 8 min 17 sec) 
Heartbeat CPU 0 instructions: 30000000 cycles: 17060296 heartbeat IPC: 1.41179 cumulative IPC: 1.75847 (Simulation time: 0 hr 13 min 28 sec) 
Heartbeat CPU 0 instructions: 40000000 cycles: 24203579 heartbeat IPC: 1.39992 cumulative IPC: 1.65265 (Simulation time: 0 hr 18 min 40 sec) 
Heartbeat CPU 0 instructions: 50000003 cycles: 31337128 heartbeat IPC: 1.40183 cumulative IPC: 1.59555 (Simulation time: 0 hr 23 min 52 sec) 

Warmup complete CPU 0 instructions: 50000003 cycles: 31337128 (Simulation time: 0 hr 23 min 52 sec) 

Heartbeat CPU 0 instructions: 60000000 cycles: 223684365 heartbeat IPC: 0.0519893 cumulative IPC: 0.0519893 (Simulation time: 0 hr 26 min 49 sec) 
Heartbeat CPU 0 instructions: 70000002 cycles: 418855726 heartbeat IPC: 0.051237 cumulative IPC: 0.0516104 (Simulation time: 0 hr 29 min 49 sec) 
Heartbeat CPU 0 instructions: 80000000 cycles: 613651595 heartbeat IPC: 0.0513358 cumulative IPC: 0.0515185 (Simulation time: 0 hr 32 min 48 sec) 
Heartbeat CPU 0 instructions: 90000000 cycles: 808205686 heartbeat IPC: 0.0513996 cumulative IPC: 0.0514888 (Simulation time: 0 hr 35 min 47 sec) 
Heartbeat CPU 0 instructions: 100000000 cycles: 1002858756 heartbeat IPC: 0.0513735 cumulative IPC: 0.0514657 (Simulation time: 0 hr 38 min 46 sec) 
Heartbeat CPU 0 instructions: 110000001 cycles: 1198791313 heartbeat IPC: 0.051038 cumulative IPC: 0.0513939 (Simulation time: 0 hr 41 min 45 sec) 
Heartbeat CPU 0 instructions: 120000000 cycles: 1393971115 heartbeat IPC: 0.0512348 cumulative IPC: 0.0513711 (Simulation time: 0 hr 44 min 44 sec) 
Heartbeat CPU 0 instructions: 130000003 cycles: 1589472733 heartbeat IPC: 0.0511505 cumulative IPC: 0.0513434 (Simulation time: 0 hr 47 min 43 sec) 
Heartbeat CPU 0 instructions: 140000000 cycles: 1784373589 heartbeat IPC: 0.0513081 cumulative IPC: 0.0513395 (Simulation time: 0 hr 50 min 42 sec) 
Heartbeat CPU 0 instructions: 150000001 cycles: 1979507580 heartbeat IPC: 0.0512468 cumulative IPC: 0.0513302 (Simulation time: 0 hr 53 min 41 sec) 
Finished CPU 0 instructions: 100000003 cycles: 1948170684 cumulative IPC: 0.0513302 (Simulation time: 0 hr 53 min 41 sec) 

ChampSim completed all CPUs

Region of Interest Statistics

CPU 0 cumulative IPC: 0.0513302 instructions: 100000003 cycles: 1948170684
ITLB TOTAL     ACCESS:   31776041  HIT:   31776041  MISS:          0  HIT %:        100  MISS %:          0   MPKI: 0
ITLB LOAD TRANSLATION ACCESS:   31776041  HIT:   31776041  MISS:          0  HIT %:        100  MISS %:          0   MPKI: 0
ITLB PREFETCH  REQUESTED:          0  ISSUED:          0  USEFUL:          0  USELESS:          0
ITLB USEFUL LOAD PREFETCHES:          0 PREFETCH ISSUED TO LOWER LEVEL:          0  ACCURACY: -nan
ITLB TIMELY PREFETCHES:          0 LATE PREFETCHES: 0 DROPPED PREFETCHES: 0
ITLB PREFETCHES SAME FILL-ORIGIN LEVEL: 0 DIFFERENT FILL-ORIGIN LEVEL: 0
ITLB AVERAGE MISS LATENCY: -nan cycles
ITLB RQ	ACCESS:   32308297	FORWARD:          0	MERGED:     532256	TO_CACHE:   31776041

DTLB TOTAL     ACCESS:   32003008  HIT:   19867688  MISS:   12135320  HIT %:    62.0807  MISS %:    37.9193   MPKI: 121.353
DTLB LOAD TRANSLATION ACCESS:   32003008  HIT:   19867688  MISS:   12135320  HIT %:    62.0807  MISS %:    37.9193   MPKI: 121.353
DTLB PREFETCH  REQUESTED:          0  ISSUED:          0  USEFUL:          0  USELESS:          0
DTLB USEFUL LOAD PREFETCHES:          0 PREFETCH ISSUED TO LOWER LEVEL:          0  ACCURACY: -nan
DTLB TIMELY PREFETCHES:          0 LATE PREFETCHES: 0 DROPPED PREFETCHES: 0
DTLB PREFETCHES SAME FILL-ORIGIN LEVEL: 0 DIFFERENT FILL-ORIGIN LEVEL: 0
DTLB AVERAGE MISS LATENCY: 9.22473 cycles
DTLB RQ	ACCESS:   32323262	FORWARD:          0	MERGED:     316007	TO_CACHE:   32007255

STLB TOTAL     ACCESS:   30160360  HIT:   30141134  MISS:      19226  HIT %:    99.9363  MISS %:  0.0637459   MPKI: 0.19226
STLB LOAD TRANSLATION ACCESS:   12135319  HIT:   12116093  MISS:      19226  HIT %:    99.8416  MISS %:    0.15843   MPKI: 0.19226
STLB TRANSLATION FROM L1D PREFETCHER ACCESS:   18025041  HIT:   18025041  MISS:          0  HIT %:        100  MISS %:          0   MPKI: 0
STLB PREFETCH  REQUESTED:          0  ISSUED:          0  USEFUL:          0  USELESS:          0
STLB USEFUL LOAD PREFETCHES:          0 PREFETCH ISSUED TO LOWER LEVEL:          0  ACCURACY: -nan
STLB TIMELY PREFETCHES:          0 LATE PREFETCHES: 0 DROPPED PREFETCHES: 0
STLB PREFETCHES SAME FILL-ORIGIN LEVEL: 0 DIFFERENT FILL-ORIGIN LEVEL: 0
STLB AVERAGE MISS LATENCY: 136.422 cycles
STLB RQ	ACCESS:   31646250	FORWARD:          0	MERGED:    1485890	TO_CACHE:   30160360

STLB Hit, L1D data hit: 0
STLB Hit, L2C data hit: 0
STLB Hit, LLC data hit: 0
STLB Hit, LLC data miss: 0
STLB STLB hints to L2: 0
L1D TOTAL     ACCESS:   51657145  HIT:   16730856  MISS:   34926289  HIT %:    32.3883  MISS %:    67.6117   MPKI: 349.263
L1D LOAD      ACCESS:   31085084  HIT:   14079995  MISS:   17005089  HIT %:     45.295  MISS %:     54.705   MPKI: 170.051
L1D RFO       ACCESS:    1192990  HIT:    1192990  MISS:          0  HIT %:        100  MISS %:          0   MPKI: 0
L1D PREFETCH  ACCESS:   19379071  HIT:    1457871  MISS:   17921200  HIT %:    7.52291  MISS %:    92.4771   MPKI: 179.212
AGUS PREFETCH L1 MISS: 0
L1D PREFETCH  REQUESTED:   39022096  ISSUED:   39021862  USEFUL:    1546967  USELESS:   16374238
L1D USEFUL LOAD PREFETCHES:    1546967 PREFETCH ISSUED TO LOWER LEVEL:   18047849  ACCURACY: 8.57148
L1D TIMELY PREFETCHES:    1546967 LATE PREFETCHES: 126648 DROPPED PREFETCHES: 0
L1D PREFETCHES SAME FILL-ORIGIN LEVEL: 18047849 DIFFERENT FILL-ORIGIN LEVEL: 0
L1D AVERAGE MISS LATENCY: 91.6788 cycles
L1D RQ	ACCESS:   39375942	FORWARD:          0	MERGED:    8245670	TO_CACHE:   31130272
L1D WQ	ACCESS:    1192990	FORWARD:          0	MERGED:          0	TO_CACHE:    1192990
L1D PQ	ACCESS:   19510931	FORWARD:          0	MERGED:          0	TO_CACHE:   19510931

L1D UNIQUE REGIONS ACCESSED: 0
L1D REGIONS CONFLICTS: 0
L1D Cross Page Prefetch Requests: 0
L1D Same Page Prefetch Requests: 27560710
L1D ROI Sum of L1D PQ occupancy: 254125120
L1D PREFETCHES PUSHED FROM L2C: 0
L1I TOTAL     ACCESS:   32308297  HIT:   32308297  MISS:          0  HIT %:        100  MISS %:          0   MPKI: 0
L1I LOAD      ACCESS:   32308297  HIT:   32308297  MISS:          0  HIT %:        100  MISS %:          0   MPKI: 0
L1I PREFETCH  REQUESTED:          0  ISSUED:          0  USEFUL:          0  USELESS:          0
L1I USEFUL LOAD PREFETCHES:          0 PREFETCH ISSUED TO LOWER LEVEL:          0  ACCURACY: -nan
L1I TIMELY PREFETCHES:          0 LATE PREFETCHES: 0 DROPPED PREFETCHES: 0
L1I PREFETCHES SAME FILL-ORIGIN LEVEL: 0 DIFFERENT FILL-ORIGIN LEVEL: 0
L1I AVERAGE MISS LATENCY: -nan cycles
L1I RQ	ACCESS:   49297297	FORWARD:          0	MERGED:   16989000	TO_CACHE:   32308297

BTB TOTAL     ACCESS:   19091477  HIT:   19091474  MISS:          3  HIT %:        100  MISS %: 1.57138e-05   MPKI: 3e-05
BTB BRANCH_DIRECT_JUMP	ACCESS:          0  HIT:          0  MISS:          0
BTB BRANCH_INDIRECT	ACCESS:          0  HIT:          0  MISS:          0
BTB BRANCH_CONDITIONAL	ACCESS:   19091477  HIT:   19091474  MISS:          3
BTB BRANCH_DIRECT_CALL	ACCESS:          0  HIT:          0  MISS:          0
BTB BRANCH_INDIRECT_CALL	ACCESS:          0  HIT:          0  MISS:          0
BTB BRANCH_RETURN	ACCESS:          0  HIT:          0  MISS:          0
BTB BRANCH_OTHER ACCESS:          0  HIT:          0  MISS:          0

L2C TOTAL     ACCESS:   37608398  HIT:    9990064  MISS:   27618334  HIT %:    26.5634  MISS %:    73.4366   MPKI: 276.183
L2C LOAD      ACCESS:   16878421  HIT:    3902721  MISS:   12975700  HIT %:    23.1225  MISS %:    76.8775   MPKI: 129.757
L2C DATA LOAD MPKI: 129.757
L2C INSTRUCTION LOAD MPKI: 0
L2C PREFETCH  ACCESS:   20655562  HIT:    6017047  MISS:   14638515  HIT %:    29.1304  MISS %:    70.8696   MPKI: 146.385
AGUS PREFETCH L1 MISS: 0
L2C DATA PREFETCH MPKI: 146.385
L2C INSTRUCTION PREFETCH MPKI: 0
L2C WRITEBACK ACCESS:      55184  HIT:      55081  MISS:        103  HIT %:    99.8134  MISS %:   0.186648   MPKI: 0.00103
L2C LOAD TRANSLATION ACCESS:      19231  HIT:      15215  MISS:       4016  HIT %:    79.1171  MISS %:    20.8829   MPKI: 0.04016
L2C PREFETCH  REQUESTED:    3106573  ISSUED:    3106573  USEFUL:     601501  USELESS:   14036519
L2C USEFUL LOAD PREFETCHES:     601501 PREFETCH ISSUED TO LOWER LEVEL:   14640093  ACCURACY: 4.10859
L2C TIMELY PREFETCHES:     601501 LATE PREFETCHES: 1577 DROPPED PREFETCHES: 0
L2C PREFETCHES SAME FILL-ORIGIN LEVEL: 1153268 DIFFERENT FILL-ORIGIN LEVEL: 0
L2C AVERAGE MISS LATENCY: 105.506 cycles
L2C RQ	ACCESS:   16897672	FORWARD:          0	MERGED:          0	TO_CACHE:   16897652
L2C WQ	ACCESS:      55184	FORWARD:         20	MERGED:          0	TO_CACHE:      55184
L2C PQ	ACCESS:   21154422	FORWARD:          0	MERGED:     426453	TO_CACHE:   20727969

L2C Instructions Evicting Data 0
L2C Translations Evicting Data 4016
L2C Data Evicting Data 27610197
L2C Instructions Evicting Instructions 0
L2C Translations Evicting Instructions 0
L2C Data Evicting Instructions 0
L2C Instructions Evicting Translations 0
L2C Translations Evicting Translations 0
L2C Data Evicting Translations 4018
L2C Dense regions hint from L2: 0
PSCL5 TOTAL     ACCESS:      19226  HIT:      19226  MISS:          0  HIT %:        100  MISS %:          0   MPKI: 0
PSCL5 LOAD TRANSLATION ACCESS:      19226  HIT:      19226  MISS:          0  HIT %:        100  MISS %:          0   MPKI: 0
PSCL5 PREFETCH  REQUESTED:          0  ISSUED:          0  USEFUL:          0  USELESS:          0
PSCL5 USEFUL LOAD PREFETCHES:          0 PREFETCH ISSUED TO LOWER LEVEL:          0  ACCURACY: -nan
PSCL5 TIMELY PREFETCHES:          0 LATE PREFETCHES: 0 DROPPED PREFETCHES: 0
PSCL5 PREFETCHES SAME FILL-ORIGIN LEVEL: 0 DIFFERENT FILL-ORIGIN LEVEL: 0

PSCL4 TOTAL     ACCESS:      19226  HIT:      19226  MISS:          0  HIT %:        100  MISS %:          0   MPKI: 0
PSCL4 LOAD TRANSLATION ACCESS:      19226  HIT:      19226  MISS:          0  HIT %:        100  MISS %:          0   MPKI: 0
PSCL4 PREFETCH  REQUESTED:          0  ISSUED:          0  USEFUL:          0  USELESS:          0
PSCL4 USEFUL LOAD PREFETCHES:          0 PREFETCH ISSUED TO LOWER LEVEL:          0  ACCURACY: -nan
PSCL4 TIMELY PREFETCHES:          0 LATE PREFETCHES: 0 DROPPED PREFETCHES: 0
PSCL4 PREFETCHES SAME FILL-ORIGIN LEVEL: 0 DIFFERENT FILL-ORIGIN LEVEL: 0

PSCL3 TOTAL     ACCESS:      19226  HIT:      19226  MISS:          0  HIT %:        100  MISS %:          0   MPKI: 0
PSCL3 LOAD TRANSLATION ACCESS:      19226  HIT:      19226  MISS:          0  HIT %:        100  MISS %:          0   MPKI: 0
PSCL3 PREFETCH  REQUESTED:          0  ISSUED:          0  USEFUL:          0  USELESS:          0
PSCL3 USEFUL LOAD PREFETCHES:          0 PREFETCH ISSUED TO LOWER LEVEL:          0  ACCURACY: -nan
PSCL3 TIMELY PREFETCHES:          0 LATE PREFETCHES: 0 DROPPED PREFETCHES: 0
PSCL3 PREFETCHES SAME FILL-ORIGIN LEVEL: 0 DIFFERENT FILL-ORIGIN LEVEL: 0

PSCL2 TOTAL     ACCESS:      19226  HIT:      19186  MISS:         40  HIT %:    99.7919  MISS %:   0.208052   MPKI: 0.0004
PSCL2 LOAD TRANSLATION ACCESS:      19226  HIT:      19186  MISS:         40  HIT %:    99.7919  MISS %:   0.208052   MPKI: 0.0004
PSCL2 PREFETCH  REQUESTED:          0  ISSUED:          0  USEFUL:          0  USELESS:          0
PSCL2 USEFUL LOAD PREFETCHES:          0 PREFETCH ISSUED TO LOWER LEVEL:          0  ACCURACY: -nan
PSCL2 TIMELY PREFETCHES:          0 LATE PREFETCHES: 0 DROPPED PREFETCHES: 0
PSCL2 PREFETCHES SAME FILL-ORIGIN LEVEL: 0 DIFFERENT FILL-ORIGIN LEVEL: 0

LLC TOTAL     ACCESS:   27656361  HIT:   13974633  MISS:   13681728  HIT %:    50.5295  MISS %:    49.4705   MPKI: 136.817
LLC LOAD      ACCESS:   12974123  HIT:    7015988  MISS:    5958135  HIT %:    54.0768  MISS %:    45.9232   MPKI: 59.5813
LLC PREFETCH  ACCESS:   14640093  HIT:    6919613  MISS:    7720480  HIT %:    47.2648  MISS %:    52.7352   MPKI: 77.2048
AGUS PREFETCH L1 MISS: 0
LLC WRITEBACK ACCESS:      38129  HIT:      38002  MISS:        127  HIT %:    99.6669  MISS %:    0.33308   MPKI: 0.00127
LLC LOAD TRANSLATION ACCESS:       4016  HIT:       1030  MISS:       2986  HIT %:    25.6474  MISS %:    74.3526   MPKI: 0.02986
LLC PREFETCH  REQUESTED:          0  ISSUED:          0  USEFUL:    1040921  USELESS:    6679017
LLC USEFUL LOAD PREFETCHES:    1040921 PREFETCH ISSUED TO LOWER LEVEL:    7720480  ACCURACY: 13.4826
LLC TIMELY PREFETCHES:    1040921 LATE PREFETCHES: 0 DROPPED PREFETCHES: 0
LLC PREFETCHES SAME FILL-ORIGIN LEVEL: 0 DIFFERENT FILL-ORIGIN LEVEL: 0
LLC AVERAGE MISS LATENCY: 152.362 cycles
LLC RQ	ACCESS:   12978139	FORWARD:          0	MERGED:          0	TO_CACHE:   12978139
LLC WQ	ACCESS:      38129	FORWARD:          0	MERGED:          0	TO_CACHE:      38129
LLC PQ	ACCESS:   14640093	FORWARD:          0	MERGED:          0	TO_CACHE:   14640093

LLC Dense regions hint to LLC: 0

RAW hits: 0
Loads Generated: 39375943
Loads sent to L1D: 39375942
Stores Generated: 1192990
Stores sent to L1D: 1192990
Major fault: 0 Minor fault: 28421
Allocated PAGES: 28421

stream: 
stream:times selected: 26389864
stream:pref_filled: 23037318
stream:pref_useful: 683502
stream:pref_late: 164435
stream:misses: 5951293
stream:misses_by_poll: 0

CS: 
CS:times selected: 2125673
CS:pref_filled: 1739441
CS:pref_useful: 1607524
CS:pref_late: 5021
CS:misses: 150823
CS:misses_by_poll: 986

CPLX: 
CPLX:times selected: 24038751
CPLX:pref_filled: 445493
CPLX:pref_useful: 13855
CPLX:pref_late: 6291
CPLX:misses: 17458574
CPLX:misses_by_poll: 102

NL_L1: 
NL:times selected: 70412
NL:pref_filled: 65072
NL:pref_useful: 904
NL:pref_late: 191
NL:misses: 69109
NL:misses_by_poll: 0

total selections: 52624700
total_filled: 17921200
total_useful: 1546967
total_late: 180044
total_polluted: 1088
total_misses_after_warmup: 17050278
conflicts: 197

test: 15055419

DRAM Statistics
 CHANNEL 0
 RQ ROW_BUFFER_HIT:    2850856  ROW_BUFFER_MISS:   10830744
 DBUS_CONGESTED:        260
 WQ ROW_BUFFER_HIT:      12811  ROW_BUFFER_MISS:      24662  FULL:          0

 AVG_CONGESTED_CYCLE: 5
 All warmup complete: 2
Channel 0 Bank busy for read cycles: 0
Channel 0 Bank busy for write cycles: 0
Channel 0
Rank 0
0banks busy for read cycles: 850271062
0banks busy for write cycles: 33691
1banks busy for read cycles: 513187546
1banks busy for write cycles: 8749575
2banks busy for read cycles: 493070208
2banks busy for write cycles: 830248
3banks busy for read cycles: 66483535
3banks busy for write cycles: 80301
4banks busy for read cycles: 10763186
4banks busy for write cycles: 8488
5banks busy for read cycles: 3269100
5banks busy for write cycles: 5550
6banks busy for read cycles: 1015125
6banks busy for write cycles: 19
7banks busy for read cycles: 326881
7banks busy for write cycles: 410
8banks busy for read cycles: 75760
8banks busy for write cycles: 0

CPU 0 Branch Prediction Accuracy: 96.3332% MPKI: 7.00038 Average ROB Occupancy at Mispredict: 115.745
Branch types
NOT_BRANCH: 80908520 80.9085%
BRANCH_DIRECT_JUMP: 0 0%
BRANCH_INDIRECT: 0 0%
BRANCH_CONDITIONAL: 19091480 19.0915%
BRANCH_DIRECT_CALL: 0 0%
BRANCH_INDIRECT_CALL: 0 0%
BRANCH_RETURN: 0 0%
BRANCH_OTHER: 0 0%

DRAM PAGES: 1048576
Allocated PAGES: 28421
