
*** ChampSim Multicore Out-of-Order Simulator ***

Warmup Instructions: 50000000
Simulation Instructions: 100000000
Number of CPUs: 1
LLC sets: 2048
LLC ways: 16
Off-chip DRAM Size: 4096 MB Channels: 1 Width: 64-bit Data Rate: 6400 MT/s
CPU 0 runs ./traces/GAP/pr-5.trace.gz
.gz
CPU 0 Bimodal branch predictor
BTB has LRU replacement policy
ITLB has LRU replacement policy
DTLB has LRU replacement policy
STLB has LRU replacement policy
L1I has LRU replacement policy
L1D has LRU replacement policy
Ideal ISB Prefetching
L2C has LRU replacement policy
LLC has LRU replacement policy
Heartbeat CPU 0 instructions: 10000003 cycles: 3333431 heartbeat IPC: 2.99991 cumulative IPC: 2.99991 (Simulation time: 0 hr 0 min 19 sec) 
Heartbeat CPU 0 instructions: 20000000 cycles: 9762528 heartbeat IPC: 1.55543 cumulative IPC: 2.04865 (Simulation time: 0 hr 5 min 10 sec) 
Heartbeat CPU 0 instructions: 30000000 cycles: 16646566 heartbeat IPC: 1.45264 cumulative IPC: 1.80217 (Simulation time: 0 hr 10 min 42 sec) 
Heartbeat CPU 0 instructions: 40000000 cycles: 23576546 heartbeat IPC: 1.44301 cumulative IPC: 1.6966 (Simulation time: 0 hr 16 min 14 sec) 
Heartbeat CPU 0 instructions: 50000003 cycles: 30499959 heartbeat IPC: 1.44437 cumulative IPC: 1.63935 (Simulation time: 0 hr 21 min 51 sec) 

Warmup complete CPU 0 instructions: 50000003 cycles: 30499959 (Simulation time: 0 hr 21 min 51 sec) 

Heartbeat CPU 0 instructions: 60000000 cycles: 215601650 heartbeat IPC: 0.0540243 cumulative IPC: 0.0540243 (Simulation time: 0 hr 29 min 33 sec) 
Heartbeat CPU 0 instructions: 70000002 cycles: 401331610 heartbeat IPC: 0.0538416 cumulative IPC: 0.0539328 (Simulation time: 0 hr 37 min 18 sec) 
Heartbeat CPU 0 instructions: 80000000 cycles: 586984474 heartbeat IPC: 0.053864 cumulative IPC: 0.0539098 (Simulation time: 0 hr 45 min 2 sec) 
Heartbeat CPU 0 instructions: 90000000 cycles: 773359903 heartbeat IPC: 0.0536551 cumulative IPC: 0.0538459 (Simulation time: 0 hr 52 min 50 sec) 
Heartbeat CPU 0 instructions: 100000000 cycles: 959203913 heartbeat IPC: 0.0538086 cumulative IPC: 0.0538385 (Simulation time: 1 hr 0 min 42 sec) 
Heartbeat CPU 0 instructions: 110000001 cycles: 1146290627 heartbeat IPC: 0.0534512 cumulative IPC: 0.0537735 (Simulation time: 1 hr 8 min 41 sec) 
Heartbeat CPU 0 instructions: 120000000 cycles: 1332408655 heartbeat IPC: 0.0537293 cumulative IPC: 0.0537672 (Simulation time: 1 hr 16 min 36 sec) 
Heartbeat CPU 0 instructions: 130000003 cycles: 1519250254 heartbeat IPC: 0.0535213 cumulative IPC: 0.0537363 (Simulation time: 1 hr 24 min 36 sec) 
Heartbeat CPU 0 instructions: 140000000 cycles: 1705144450 heartbeat IPC: 0.053794 cumulative IPC: 0.0537427 (Simulation time: 1 hr 32 min 37 sec) 
Heartbeat CPU 0 instructions: 150000001 cycles: 1891420374 heartbeat IPC: 0.0536838 cumulative IPC: 0.0537368 (Simulation time: 1 hr 40 min 47 sec) 
Finished CPU 0 instructions: 100000003 cycles: 1860920477 cumulative IPC: 0.0537368 (Simulation time: 1 hr 40 min 47 sec) 

ChampSim completed all CPUs

Region of Interest Statistics

CPU 0 cumulative IPC: 0.0537368 instructions: 100000003 cycles: 1860920477
ITLB TOTAL     ACCESS:   31759983  HIT:   31759983  MISS:          0  HIT %:        100  MISS %:          0   MPKI: 0
ITLB LOAD TRANSLATION ACCESS:   31759983  HIT:   31759983  MISS:          0  HIT %:        100  MISS %:          0   MPKI: 0
ITLB PREFETCH  REQUESTED:          0  ISSUED:          0  USEFUL:          0  USELESS:          0
ITLB USEFUL LOAD PREFETCHES:          0 PREFETCH ISSUED TO LOWER LEVEL:          0  ACCURACY: -nan
ITLB TIMELY PREFETCHES:          0 LATE PREFETCHES: 0 DROPPED PREFETCHES: 0
ITLB PREFETCHES SAME FILL-ORIGIN LEVEL: 0 DIFFERENT FILL-ORIGIN LEVEL: 0
ITLB AVERAGE MISS LATENCY: -nan cycles
ITLB RQ	ACCESS:   32292239	FORWARD:          0	MERGED:     532257	TO_CACHE:   31759982

DTLB TOTAL     ACCESS:   32006530  HIT:   19871233  MISS:   12135297  HIT %:    62.0849  MISS %:    37.9151   MPKI: 121.353
DTLB LOAD TRANSLATION ACCESS:   32006530  HIT:   19871233  MISS:   12135297  HIT %:    62.0849  MISS %:    37.9151   MPKI: 121.353
DTLB PREFETCH  REQUESTED:          0  ISSUED:          0  USEFUL:          0  USELESS:          0
DTLB USEFUL LOAD PREFETCHES:          0 PREFETCH ISSUED TO LOWER LEVEL:          0  ACCURACY: -nan
DTLB TIMELY PREFETCHES:          0 LATE PREFETCHES: 0 DROPPED PREFETCHES: 0
DTLB PREFETCHES SAME FILL-ORIGIN LEVEL: 0 DIFFERENT FILL-ORIGIN LEVEL: 0
DTLB AVERAGE MISS LATENCY: 9.2249 cycles
DTLB RQ	ACCESS:   32326739	FORWARD:          0	MERGED:     315958	TO_CACHE:   32010781

STLB TOTAL     ACCESS:   12135296  HIT:   12116070  MISS:      19226  HIT %:    99.8416  MISS %:    0.15843   MPKI: 0.19226
STLB LOAD TRANSLATION ACCESS:   12135296  HIT:   12116070  MISS:      19226  HIT %:    99.8416  MISS %:    0.15843   MPKI: 0.19226
STLB PREFETCH  REQUESTED:          0  ISSUED:          0  USEFUL:          0  USELESS:          0
STLB USEFUL LOAD PREFETCHES:          0 PREFETCH ISSUED TO LOWER LEVEL:          0  ACCURACY: -nan
STLB TIMELY PREFETCHES:          0 LATE PREFETCHES: 0 DROPPED PREFETCHES: 0
STLB PREFETCHES SAME FILL-ORIGIN LEVEL: 0 DIFFERENT FILL-ORIGIN LEVEL: 0
STLB AVERAGE MISS LATENCY: 136.047 cycles
STLB RQ	ACCESS:   12135296	FORWARD:          0	MERGED:          0	TO_CACHE:   12135296

STLB Hit, L1D data hit: 0
STLB Hit, L2C data hit: 0
STLB Hit, LLC data hit: 0
STLB Hit, LLC data miss: 0
STLB STLB hints to L2: 0
L1D TOTAL     ACCESS:   30174406  HIT:   12005643  MISS:   18168763  HIT %:    39.7875  MISS %:    60.2125   MPKI: 181.688
L1D LOAD      ACCESS:   28981416  HIT:   10812653  MISS:   18168763  HIT %:    37.3089  MISS %:    62.6911   MPKI: 181.688
L1D RFO       ACCESS:    1192990  HIT:    1192990  MISS:          0  HIT %:        100  MISS %:          0   MPKI: 0
L1D PREFETCH  REQUESTED:          0  ISSUED:          0  USEFUL:          0  USELESS:          0
L1D USEFUL LOAD PREFETCHES:          0 PREFETCH ISSUED TO LOWER LEVEL:          0  ACCURACY: -nan
L1D TIMELY PREFETCHES:          0 LATE PREFETCHES: 0 DROPPED PREFETCHES: 0
L1D PREFETCHES SAME FILL-ORIGIN LEVEL: 0 DIFFERENT FILL-ORIGIN LEVEL: 0
L1D AVERAGE MISS LATENCY: 93.721 cycles
L1D RQ	ACCESS:   39375942	FORWARD:          0	MERGED:    8242193	TO_CACHE:   31133749
L1D WQ	ACCESS:    1192990	FORWARD:          0	MERGED:          0	TO_CACHE:    1192990

L1D UNIQUE REGIONS ACCESSED: 0
L1D REGIONS CONFLICTS: 0
L1D Cross Page Prefetch Requests: 0
L1D Same Page Prefetch Requests: 0
L1D ROI Sum of L1D PQ occupancy: 0
L1D PREFETCHES PUSHED FROM L2C: 0
L1I TOTAL     ACCESS:   32292241  HIT:   32292241  MISS:          0  HIT %:        100  MISS %:          0   MPKI: 0
L1I LOAD      ACCESS:   32292241  HIT:   32292241  MISS:          0  HIT %:        100  MISS %:          0   MPKI: 0
L1I PREFETCH  REQUESTED:          0  ISSUED:          0  USEFUL:          0  USELESS:          0
L1I USEFUL LOAD PREFETCHES:          0 PREFETCH ISSUED TO LOWER LEVEL:          0  ACCURACY: -nan
L1I TIMELY PREFETCHES:          0 LATE PREFETCHES: 0 DROPPED PREFETCHES: 0
L1I PREFETCHES SAME FILL-ORIGIN LEVEL: 0 DIFFERENT FILL-ORIGIN LEVEL: 0
L1I AVERAGE MISS LATENCY: -nan cycles
L1I RQ	ACCESS:   49284301	FORWARD:          0	MERGED:   16992062	TO_CACHE:   32292239

BTB TOTAL     ACCESS:   19091477  HIT:   19091474  MISS:          3  HIT %:        100  MISS %: 1.57138e-05   MPKI: 3e-05
BTB BRANCH_DIRECT_JUMP	ACCESS:          0  HIT:          0  MISS:          0
BTB BRANCH_INDIRECT	ACCESS:          0  HIT:          0  MISS:          0
BTB BRANCH_CONDITIONAL	ACCESS:   19091477  HIT:   19091474  MISS:          3
BTB BRANCH_DIRECT_CALL	ACCESS:          0  HIT:          0  MISS:          0
BTB BRANCH_INDIRECT_CALL	ACCESS:          0  HIT:          0  MISS:          0
BTB BRANCH_RETURN	ACCESS:          0  HIT:          0  MISS:          0
BTB BRANCH_OTHER ACCESS:          0  HIT:          0  MISS:          0

L2C TOTAL     ACCESS:   32805159  HIT:    7582174  MISS:   25222985  HIT %:    23.1127  MISS %:    76.8873   MPKI: 252.23
L2C LOAD      ACCESS:   18168763  HIT:    4690155  MISS:   13478608  HIT %:    25.8144  MISS %:    74.1856   MPKI: 134.786
L2C DATA LOAD MPKI: 134.786
L2C INSTRUCTION LOAD MPKI: 0
L2C PREFETCH  ACCESS:   14572433  HIT:    2832615  MISS:   11739818  HIT %:    19.4382  MISS %:    80.5618   MPKI: 117.398
AGUS PREFETCH L1 MISS: 0
L2C DATA PREFETCH MPKI: 117.398
L2C INSTRUCTION PREFETCH MPKI: 0
L2C WRITEBACK ACCESS:      44732  HIT:      44093  MISS:        639  HIT %:    98.5715  MISS %:    1.42851   MPKI: 0.00639
L2C LOAD TRANSLATION ACCESS:      19231  HIT:      15311  MISS:       3920  HIT %:    79.6162  MISS %:    20.3838   MPKI: 0.0392
L2C PREFETCH  REQUESTED:   14580303  ISSUED:   14580257  USEFUL:    1416200  USELESS:   10323615
L2C USEFUL LOAD PREFETCHES:    1416200 PREFETCH ISSUED TO LOWER LEVEL:   11745332  ACCURACY: 12.0576
L2C TIMELY PREFETCHES:    1416200 LATE PREFETCHES: 5512 DROPPED PREFETCHES: 0
L2C PREFETCHES SAME FILL-ORIGIN LEVEL: 11745332 DIFFERENT FILL-ORIGIN LEVEL: 0
L2C AVERAGE MISS LATENCY: 95.6686 cycles
L2C RQ	ACCESS:   18187995	FORWARD:          0	MERGED:          0	TO_CACHE:   18187995
L2C WQ	ACCESS:      44732	FORWARD:          0	MERGED:          0	TO_CACHE:      44732
L2C PQ	ACCESS:   14580257	FORWARD:          0	MERGED:        217	TO_CACHE:   14580040

L2C Instructions Evicting Data 0
L2C Translations Evicting Data 3920
L2C Data Evicting Data 25214505
L2C Instructions Evicting Instructions 0
L2C Translations Evicting Instructions 0
L2C Data Evicting Instructions 0
L2C Instructions Evicting Translations 0
L2C Translations Evicting Translations 0
L2C Data Evicting Translations 3921
L2C Dense regions hint from L2: 0
PSCL5 TOTAL     ACCESS:      19226  HIT:      19226  MISS:          0  HIT %:        100  MISS %:          0   MPKI: 0
PSCL5 LOAD TRANSLATION ACCESS:      19226  HIT:      19226  MISS:          0  HIT %:        100  MISS %:          0   MPKI: 0
PSCL5 PREFETCH  REQUESTED:          0  ISSUED:          0  USEFUL:          0  USELESS:          0
PSCL5 USEFUL LOAD PREFETCHES:          0 PREFETCH ISSUED TO LOWER LEVEL:          0  ACCURACY: -nan
PSCL5 TIMELY PREFETCHES:          0 LATE PREFETCHES: 0 DROPPED PREFETCHES: 0
PSCL5 PREFETCHES SAME FILL-ORIGIN LEVEL: 0 DIFFERENT FILL-ORIGIN LEVEL: 0

PSCL4 TOTAL     ACCESS:      19226  HIT:      19226  MISS:          0  HIT %:        100  MISS %:          0   MPKI: 0
PSCL4 LOAD TRANSLATION ACCESS:      19226  HIT:      19226  MISS:          0  HIT %:        100  MISS %:          0   MPKI: 0
PSCL4 PREFETCH  REQUESTED:          0  ISSUED:          0  USEFUL:          0  USELESS:          0
PSCL4 USEFUL LOAD PREFETCHES:          0 PREFETCH ISSUED TO LOWER LEVEL:          0  ACCURACY: -nan
PSCL4 TIMELY PREFETCHES:          0 LATE PREFETCHES: 0 DROPPED PREFETCHES: 0
PSCL4 PREFETCHES SAME FILL-ORIGIN LEVEL: 0 DIFFERENT FILL-ORIGIN LEVEL: 0

PSCL3 TOTAL     ACCESS:      19226  HIT:      19226  MISS:          0  HIT %:        100  MISS %:          0   MPKI: 0
PSCL3 LOAD TRANSLATION ACCESS:      19226  HIT:      19226  MISS:          0  HIT %:        100  MISS %:          0   MPKI: 0
PSCL3 PREFETCH  REQUESTED:          0  ISSUED:          0  USEFUL:          0  USELESS:          0
PSCL3 USEFUL LOAD PREFETCHES:          0 PREFETCH ISSUED TO LOWER LEVEL:          0  ACCURACY: -nan
PSCL3 TIMELY PREFETCHES:          0 LATE PREFETCHES: 0 DROPPED PREFETCHES: 0
PSCL3 PREFETCHES SAME FILL-ORIGIN LEVEL: 0 DIFFERENT FILL-ORIGIN LEVEL: 0

PSCL2 TOTAL     ACCESS:      19226  HIT:      19186  MISS:         40  HIT %:    99.7919  MISS %:   0.208052   MPKI: 0.0004
PSCL2 LOAD TRANSLATION ACCESS:      19226  HIT:      19186  MISS:         40  HIT %:    99.7919  MISS %:   0.208052   MPKI: 0.0004
PSCL2 PREFETCH  REQUESTED:          0  ISSUED:          0  USEFUL:          0  USELESS:          0
PSCL2 USEFUL LOAD PREFETCHES:          0 PREFETCH ISSUED TO LOWER LEVEL:          0  ACCURACY: -nan
PSCL2 TIMELY PREFETCHES:          0 LATE PREFETCHES: 0 DROPPED PREFETCHES: 0
PSCL2 PREFETCHES SAME FILL-ORIGIN LEVEL: 0 DIFFERENT FILL-ORIGIN LEVEL: 0

LLC TOTAL     ACCESS:   25260758  HIT:   15462289  MISS:    9798469  HIT %:    61.2107  MISS %:    38.7893   MPKI: 97.9847
LLC LOAD      ACCESS:   13473096  HIT:    7110973  MISS:    6362123  HIT %:    52.7791  MISS %:    47.2209   MPKI: 63.6212
LLC PREFETCH  ACCESS:   11745330  HIT:    8311991  MISS:    3433339  HIT %:    70.7685  MISS %:    29.2315   MPKI: 34.3334
AGUS PREFETCH L1 MISS: 0
LLC WRITEBACK ACCESS:      38412  HIT:      38351  MISS:         61  HIT %:    99.8412  MISS %:   0.158805   MPKI: 0.00061
LLC LOAD TRANSLATION ACCESS:       3920  HIT:        974  MISS:       2946  HIT %:    24.8469  MISS %:    75.1531   MPKI: 0.02946
LLC PREFETCH  REQUESTED:          0  ISSUED:          0  USEFUL:     730777  USELESS:    2702106
LLC USEFUL LOAD PREFETCHES:     730777 PREFETCH ISSUED TO LOWER LEVEL:    3433341  ACCURACY: 21.2847
LLC TIMELY PREFETCHES:     730777 LATE PREFETCHES: 0 DROPPED PREFETCHES: 0
LLC PREFETCHES SAME FILL-ORIGIN LEVEL: 0 DIFFERENT FILL-ORIGIN LEVEL: 0
LLC AVERAGE MISS LATENCY: 168.973 cycles
LLC RQ	ACCESS:   13477017	FORWARD:          0	MERGED:          0	TO_CACHE:   13477017
LLC WQ	ACCESS:      38412	FORWARD:          0	MERGED:          0	TO_CACHE:      38412
LLC PQ	ACCESS:   11745332	FORWARD:          0	MERGED:          0	TO_CACHE:   11745332

LLC Dense regions hint to LLC: 0

RAW hits: 0
Loads Generated: 39375943
Loads sent to L1D: 39375942
Stores Generated: 1192990
Stores sent to L1D: 1192990
Major fault: 0 Minor fault: 28421
Allocated PAGES: 28421
Prefetcher final stats
Training Unit Size: 69
Addr table size: 1805548 1805548


Triggers: 18879018
No Prediction: 3392421 17.9693
Stream end: 15341231
No translation: 2694410566 14272
Predictions: 20434146 108.237


Stream divergence: 4311146 22.8356
Stream divergence -- new stream: 0

DRAM Statistics
 CHANNEL 0
 RQ ROW_BUFFER_HIT:    1029809  ROW_BUFFER_MISS:    8768599
 DBUS_CONGESTED:         75
 WQ ROW_BUFFER_HIT:       9926  ROW_BUFFER_MISS:      27481  FULL:          0

 AVG_CONGESTED_CYCLE: 5
 All warmup complete: 2
Channel 0 Bank busy for read cycles: 0
Channel 0 Bank busy for write cycles: 0
Channel 0
Rank 0
0banks busy for read cycles: 914640591
0banks busy for write cycles: 35982
1banks busy for read cycles: 633825331
1banks busy for write cycles: 7733949
2banks busy for read cycles: 215578420
2banks busy for write cycles: 234956
3banks busy for read cycles: 65622485
3banks busy for write cycles: 7521
4banks busy for read cycles: 16978401
4banks busy for write cycles: 31
5banks busy for read cycles: 3788172
5banks busy for write cycles: 0
6banks busy for read cycles: 741801
6banks busy for write cycles: 0
7banks busy for read cycles: 235780
7banks busy for write cycles: 0
8banks busy for read cycles: 1497058
8banks busy for write cycles: 0

CPU 0 Branch Prediction Accuracy: 96.3332% MPKI: 7.00038 Average ROB Occupancy at Mispredict: 115.347
Branch types
NOT_BRANCH: 80908524 80.9085%
BRANCH_DIRECT_JUMP: 0 0%
BRANCH_INDIRECT: 0 0%
BRANCH_CONDITIONAL: 19091480 19.0915%
BRANCH_DIRECT_CALL: 0 0%
BRANCH_INDIRECT_CALL: 0 0%
BRANCH_RETURN: 0 0%
BRANCH_OTHER: 0 0%

DRAM PAGES: 1048576
Allocated PAGES: 28421
