
*** ChampSim Multicore Out-of-Order Simulator ***

Warmup Instructions: 50000000
Simulation Instructions: 100000000
Number of CPUs: 1
LLC sets: 2048
LLC ways: 16
Off-chip DRAM Size: 4096 MB Channels: 1 Width: 64-bit Data Rate: 6400 MT/s
CPU 0 runs ./traces/GAP/sssp-5.trace.gz
.gz
CPU 0 Bimodal branch predictor
BTB has LRU replacement policy
ITLB has LRU replacement policy
DTLB has LRU replacement policy
STLB has LRU replacement policy
L1I has LRU replacement policy
L1D has LRU replacement policy
Ideal ISB Prefetching
L2C has LRU replacement policy
LLC has LRU replacement policy
Heartbeat CPU 0 instructions: 10000001 cycles: 3240521 heartbeat IPC: 3.08592 cumulative IPC: 3.08592 (Simulation time: 0 hr 0 min 46 sec) 
Heartbeat CPU 0 instructions: 20000000 cycles: 6503524 heartbeat IPC: 3.06466 cumulative IPC: 3.07526 (Simulation time: 0 hr 2 min 1 sec) 
Heartbeat CPU 0 instructions: 30000001 cycles: 9790380 heartbeat IPC: 3.04242 cumulative IPC: 3.06423 (Simulation time: 0 hr 3 min 24 sec) 
Heartbeat CPU 0 instructions: 40000000 cycles: 13097146 heartbeat IPC: 3.0241 cumulative IPC: 3.0541 (Simulation time: 0 hr 4 min 52 sec) 
Heartbeat CPU 0 instructions: 50000001 cycles: 16410380 heartbeat IPC: 3.0182 cumulative IPC: 3.04685 (Simulation time: 0 hr 6 min 21 sec) 

Warmup complete CPU 0 instructions: 50000001 cycles: 16410380 (Simulation time: 0 hr 6 min 21 sec) 

Heartbeat CPU 0 instructions: 60000000 cycles: 53332450 heartbeat IPC: 0.270841 cumulative IPC: 0.270841 (Simulation time: 0 hr 8 min 17 sec) 
Heartbeat CPU 0 instructions: 70000001 cycles: 89416858 heartbeat IPC: 0.277128 cumulative IPC: 0.273948 (Simulation time: 0 hr 10 min 14 sec) 
Heartbeat CPU 0 instructions: 80000000 cycles: 125245346 heartbeat IPC: 0.279107 cumulative IPC: 0.275647 (Simulation time: 0 hr 12 min 6 sec) 
Heartbeat CPU 0 instructions: 90000001 cycles: 159974968 heartbeat IPC: 0.287939 cumulative IPC: 0.27862 (Simulation time: 0 hr 14 min 5 sec) 
Heartbeat CPU 0 instructions: 100000000 cycles: 194145331 heartbeat IPC: 0.292651 cumulative IPC: 0.281318 (Simulation time: 0 hr 16 min 5 sec) 
Heartbeat CPU 0 instructions: 110000002 cycles: 227613731 heartbeat IPC: 0.298789 cumulative IPC: 0.284086 (Simulation time: 0 hr 18 min 10 sec) 
Heartbeat CPU 0 instructions: 120000000 cycles: 260594135 heartbeat IPC: 0.30321 cumulative IPC: 0.286669 (Simulation time: 0 hr 20 min 17 sec) 
Heartbeat CPU 0 instructions: 130000000 cycles: 293630410 heartbeat IPC: 0.302698 cumulative IPC: 0.288579 (Simulation time: 0 hr 22 min 22 sec) 
Heartbeat CPU 0 instructions: 140000000 cycles: 326290236 heartbeat IPC: 0.306187 cumulative IPC: 0.290435 (Simulation time: 0 hr 24 min 29 sec) 
Heartbeat CPU 0 instructions: 150000000 cycles: 358611379 heartbeat IPC: 0.309395 cumulative IPC: 0.292226 (Simulation time: 0 hr 26 min 38 sec) 
Finished CPU 0 instructions: 100000003 cycles: 342201000 cumulative IPC: 0.292226 (Simulation time: 0 hr 26 min 38 sec) 

ChampSim completed all CPUs

Region of Interest Statistics

CPU 0 cumulative IPC: 0.292226 instructions: 100000003 cycles: 342201000
ITLB TOTAL     ACCESS:   12192033  HIT:   12192033  MISS:          0  HIT %:        100  MISS %:          0   MPKI: 0
ITLB LOAD TRANSLATION ACCESS:   12192033  HIT:   12192033  MISS:          0  HIT %:        100  MISS %:          0   MPKI: 0
ITLB PREFETCH  REQUESTED:          0  ISSUED:          0  USEFUL:          0  USELESS:          0
ITLB USEFUL LOAD PREFETCHES:          0 PREFETCH ISSUED TO LOWER LEVEL:          0  ACCURACY: -nan
ITLB TIMELY PREFETCHES:          0 LATE PREFETCHES: 0 DROPPED PREFETCHES: 0
ITLB PREFETCHES SAME FILL-ORIGIN LEVEL: 0 DIFFERENT FILL-ORIGIN LEVEL: 0
ITLB AVERAGE MISS LATENCY: -nan cycles
ITLB RQ	ACCESS:   12620084	FORWARD:          0	MERGED:     428052	TO_CACHE:   12192032

DTLB TOTAL     ACCESS:   20940250  HIT:   18955992  MISS:    1984258  HIT %:    90.5242  MISS %:    9.47581   MPKI: 19.8426
DTLB LOAD TRANSLATION ACCESS:   20940250  HIT:   18955992  MISS:    1984258  HIT %:    90.5242  MISS %:    9.47581   MPKI: 19.8426
DTLB PREFETCH  REQUESTED:          0  ISSUED:          0  USEFUL:          0  USELESS:          0
DTLB USEFUL LOAD PREFETCHES:          0 PREFETCH ISSUED TO LOWER LEVEL:          0  ACCURACY: -nan
DTLB TIMELY PREFETCHES:          0 LATE PREFETCHES: 0 DROPPED PREFETCHES: 0
DTLB PREFETCHES SAME FILL-ORIGIN LEVEL: 0 DIFFERENT FILL-ORIGIN LEVEL: 0
DTLB AVERAGE MISS LATENCY: 11.9008 cycles
DTLB RQ	ACCESS:   22539375	FORWARD:          0	MERGED:    1541828	TO_CACHE:   20997547

STLB TOTAL     ACCESS:    1984258  HIT:    1957696  MISS:      26562  HIT %:    98.6614  MISS %:    1.33864   MPKI: 0.26562
STLB LOAD TRANSLATION ACCESS:    1984258  HIT:    1957696  MISS:      26562  HIT %:    98.6614  MISS %:    1.33864   MPKI: 0.26562
STLB PREFETCH  REQUESTED:          0  ISSUED:          0  USEFUL:          0  USELESS:          0
STLB USEFUL LOAD PREFETCHES:          0 PREFETCH ISSUED TO LOWER LEVEL:          0  ACCURACY: -nan
STLB TIMELY PREFETCHES:          0 LATE PREFETCHES: 0 DROPPED PREFETCHES: 0
STLB PREFETCHES SAME FILL-ORIGIN LEVEL: 0 DIFFERENT FILL-ORIGIN LEVEL: 0
STLB AVERAGE MISS LATENCY: 196.098 cycles
STLB RQ	ACCESS:    1984258	FORWARD:          0	MERGED:          0	TO_CACHE:    1984258

STLB Hit, L1D data hit: 0
STLB Hit, L2C data hit: 0
STLB Hit, LLC data hit: 0
STLB Hit, LLC data miss: 0
STLB STLB hints to L2: 0
L1D TOTAL     ACCESS:   20388554  HIT:   15068498  MISS:    5320056  HIT %:    73.9067  MISS %:    26.0933   MPKI: 53.2006
L1D LOAD      ACCESS:   19057393  HIT:   14026106  MISS:    5031287  HIT %:    73.5993  MISS %:    26.4007   MPKI: 50.3129
L1D RFO       ACCESS:    1331161  HIT:    1042392  MISS:     288769  HIT %:     78.307  MISS %:     21.693   MPKI: 2.88769
L1D PREFETCH  REQUESTED:          0  ISSUED:          0  USEFUL:          0  USELESS:          0
L1D USEFUL LOAD PREFETCHES:          0 PREFETCH ISSUED TO LOWER LEVEL:          0  ACCURACY: -nan
L1D TIMELY PREFETCHES:          0 LATE PREFETCHES: 0 DROPPED PREFETCHES: 0
L1D PREFETCHES SAME FILL-ORIGIN LEVEL: 0 DIFFERENT FILL-ORIGIN LEVEL: 0
L1D AVERAGE MISS LATENCY: 99.3855 cycles
L1D RQ	ACCESS:   37875762	FORWARD:          0	MERGED:   16777971	TO_CACHE:   21096044
L1D WQ	ACCESS:    1443842	FORWARD:       1747	MERGED:        511	TO_CACHE:    1443331

L1D UNIQUE REGIONS ACCESSED: 0
L1D REGIONS CONFLICTS: 0
L1D Cross Page Prefetch Requests: 0
L1D Same Page Prefetch Requests: 0
L1D ROI Sum of L1D PQ occupancy: 0
L1D PREFETCHES PUSHED FROM L2C: 0
L1I TOTAL     ACCESS:   12620083  HIT:   12620083  MISS:          0  HIT %:        100  MISS %:          0   MPKI: 0
L1I LOAD      ACCESS:   12620083  HIT:   12620083  MISS:          0  HIT %:        100  MISS %:          0   MPKI: 0
L1I PREFETCH  REQUESTED:          0  ISSUED:          0  USEFUL:          0  USELESS:          0
L1I USEFUL LOAD PREFETCHES:          0 PREFETCH ISSUED TO LOWER LEVEL:          0  ACCURACY: -nan
L1I TIMELY PREFETCHES:          0 LATE PREFETCHES: 0 DROPPED PREFETCHES: 0
L1I PREFETCHES SAME FILL-ORIGIN LEVEL: 0 DIFFERENT FILL-ORIGIN LEVEL: 0
L1I AVERAGE MISS LATENCY: -nan cycles
L1I RQ	ACCESS:   20372849	FORWARD:          0	MERGED:    7752765	TO_CACHE:   12620084

BTB TOTAL     ACCESS:   14384208  HIT:   14384086  MISS:        122  HIT %:    99.9992  MISS %: 0.000848152   MPKI: 0.00122
BTB BRANCH_DIRECT_JUMP	ACCESS:    4499226  HIT:    4499193  MISS:         33
BTB BRANCH_INDIRECT	ACCESS:          0  HIT:          0  MISS:          0
BTB BRANCH_CONDITIONAL	ACCESS:    9882950  HIT:    9882876  MISS:         74
BTB BRANCH_DIRECT_CALL	ACCESS:       1016  HIT:       1011  MISS:          5
BTB BRANCH_INDIRECT_CALL	ACCESS:          0  HIT:          0  MISS:          0
BTB BRANCH_RETURN	ACCESS:       1016  HIT:       1006  MISS:         10
BTB BRANCH_OTHER ACCESS:          0  HIT:          0  MISS:          0

L2C TOTAL     ACCESS:   10005334  HIT:    2641234  MISS:    7364100  HIT %:    26.3983  MISS %:    73.6017   MPKI: 73.641
L2C LOAD      ACCESS:    5031287  HIT:    1103219  MISS:    3928068  HIT %:    21.9272  MISS %:    78.0728   MPKI: 39.2807
L2C DATA LOAD MPKI: 39.2807
L2C INSTRUCTION LOAD MPKI: 0
L2C RFO       ACCESS:     288769  HIT:     164239  MISS:     124530  HIT %:    56.8756  MISS %:    43.1244   MPKI: 1.2453
L2C PREFETCH  ACCESS:    3813180  HIT:     525498  MISS:    3287682  HIT %:    13.7811  MISS %:    86.2189   MPKI: 32.8768
AGUS PREFETCH L1 MISS: 0
L2C DATA PREFETCH MPKI: 32.8768
L2C INSTRUCTION PREFETCH MPKI: 0
L2C WRITEBACK ACCESS:     841055  HIT:     836907  MISS:       4148  HIT %:    99.5068  MISS %:    0.49319   MPKI: 0.04148
L2C LOAD TRANSLATION ACCESS:      31043  HIT:      11371  MISS:      19672  HIT %:    36.6298  MISS %:    63.3702   MPKI: 0.19672
L2C PREFETCH  REQUESTED:    4021416  ISSUED:    4017160  USEFUL:     480497  USELESS:    2806096
L2C USEFUL LOAD PREFETCHES:     480497 PREFETCH ISSUED TO LOWER LEVEL:    3311067  ACCURACY: 14.5118
L2C TIMELY PREFETCHES:     480497 LATE PREFETCHES: 23385 DROPPED PREFETCHES: 0
L2C PREFETCHES SAME FILL-ORIGIN LEVEL: 3311067 DIFFERENT FILL-ORIGIN LEVEL: 0
L2C AVERAGE MISS LATENCY: 94.2052 cycles
L2C RQ	ACCESS:    5351102	FORWARD:          0	MERGED:          0	TO_CACHE:    5351102
L2C WQ	ACCESS:     841055	FORWARD:          0	MERGED:          0	TO_CACHE:     841055
L2C PQ	ACCESS:    4017160	FORWARD:          0	MERGED:      95290	TO_CACHE:    3921870

L2C Instructions Evicting Data 0
L2C Translations Evicting Data 19609
L2C Data Evicting Data 7320693
L2C Instructions Evicting Instructions 0
L2C Translations Evicting Instructions 0
L2C Data Evicting Instructions 0
L2C Instructions Evicting Translations 0
L2C Translations Evicting Translations 63
L2C Data Evicting Translations 19587
L2C Dense regions hint from L2: 0
PSCL5 TOTAL     ACCESS:      26562  HIT:      26562  MISS:          0  HIT %:        100  MISS %:          0   MPKI: 0
PSCL5 LOAD TRANSLATION ACCESS:      26562  HIT:      26562  MISS:          0  HIT %:        100  MISS %:          0   MPKI: 0
PSCL5 PREFETCH  REQUESTED:          0  ISSUED:          0  USEFUL:          0  USELESS:          0
PSCL5 USEFUL LOAD PREFETCHES:          0 PREFETCH ISSUED TO LOWER LEVEL:          0  ACCURACY: -nan
PSCL5 TIMELY PREFETCHES:          0 LATE PREFETCHES: 0 DROPPED PREFETCHES: 0
PSCL5 PREFETCHES SAME FILL-ORIGIN LEVEL: 0 DIFFERENT FILL-ORIGIN LEVEL: 0

PSCL4 TOTAL     ACCESS:      26562  HIT:      26562  MISS:          0  HIT %:        100  MISS %:          0   MPKI: 0
PSCL4 LOAD TRANSLATION ACCESS:      26562  HIT:      26562  MISS:          0  HIT %:        100  MISS %:          0   MPKI: 0
PSCL4 PREFETCH  REQUESTED:          0  ISSUED:          0  USEFUL:          0  USELESS:          0
PSCL4 USEFUL LOAD PREFETCHES:          0 PREFETCH ISSUED TO LOWER LEVEL:          0  ACCURACY: -nan
PSCL4 TIMELY PREFETCHES:          0 LATE PREFETCHES: 0 DROPPED PREFETCHES: 0
PSCL4 PREFETCHES SAME FILL-ORIGIN LEVEL: 0 DIFFERENT FILL-ORIGIN LEVEL: 0

PSCL3 TOTAL     ACCESS:      26562  HIT:      26562  MISS:          0  HIT %:        100  MISS %:          0   MPKI: 0
PSCL3 LOAD TRANSLATION ACCESS:      26562  HIT:      26562  MISS:          0  HIT %:        100  MISS %:          0   MPKI: 0
PSCL3 PREFETCH  REQUESTED:          0  ISSUED:          0  USEFUL:          0  USELESS:          0
PSCL3 USEFUL LOAD PREFETCHES:          0 PREFETCH ISSUED TO LOWER LEVEL:          0  ACCURACY: -nan
PSCL3 TIMELY PREFETCHES:          0 LATE PREFETCHES: 0 DROPPED PREFETCHES: 0
PSCL3 PREFETCHES SAME FILL-ORIGIN LEVEL: 0 DIFFERENT FILL-ORIGIN LEVEL: 0

PSCL2 TOTAL     ACCESS:      26562  HIT:      22079  MISS:       4483  HIT %:    83.1225  MISS %:    16.8775   MPKI: 0.04483
PSCL2 LOAD TRANSLATION ACCESS:      26562  HIT:      22079  MISS:       4483  HIT %:    83.1225  MISS %:    16.8775   MPKI: 0.04483
PSCL2 PREFETCH  REQUESTED:          0  ISSUED:          0  USEFUL:          0  USELESS:          0
PSCL2 USEFUL LOAD PREFETCHES:          0 PREFETCH ISSUED TO LOWER LEVEL:          0  ACCURACY: -nan
PSCL2 TIMELY PREFETCHES:          0 LATE PREFETCHES: 0 DROPPED PREFETCHES: 0
PSCL2 PREFETCHES SAME FILL-ORIGIN LEVEL: 0 DIFFERENT FILL-ORIGIN LEVEL: 0

LLC TOTAL     ACCESS:    7929252  HIT:    4891587  MISS:    3037665  HIT %:    61.6904  MISS %:    38.3096   MPKI: 30.3766
LLC LOAD      ACCESS:    3904684  HIT:    1850536  MISS:    2054148  HIT %:    47.3927  MISS %:    52.6073   MPKI: 20.5415
LLC RFO       ACCESS:     124530  HIT:      57680  MISS:      66850  HIT %:    46.3182  MISS %:    53.6818   MPKI: 0.6685
LLC PREFETCH  ACCESS:    3311067  HIT:    2414625  MISS:     896442  HIT %:    72.9259  MISS %:    27.0741   MPKI: 8.96442
AGUS PREFETCH L1 MISS: 0
LLC WRITEBACK ACCESS:     569299  HIT:     564683  MISS:       4616  HIT %:    99.1892  MISS %:   0.810822   MPKI: 0.04616
LLC LOAD TRANSLATION ACCESS:      19672  HIT:       4063  MISS:      15609  HIT %:    20.6537  MISS %:    79.3463   MPKI: 0.15609
LLC PREFETCH  REQUESTED:          0  ISSUED:          0  USEFUL:     235821  USELESS:     662638
LLC USEFUL LOAD PREFETCHES:     235821 PREFETCH ISSUED TO LOWER LEVEL:     896442  ACCURACY: 26.3063
LLC TIMELY PREFETCHES:     235821 LATE PREFETCHES: 0 DROPPED PREFETCHES: 0
LLC PREFETCHES SAME FILL-ORIGIN LEVEL: 0 DIFFERENT FILL-ORIGIN LEVEL: 0
LLC AVERAGE MISS LATENCY: 155.551 cycles
LLC RQ	ACCESS:    4048887	FORWARD:          0	MERGED:          0	TO_CACHE:    4048887
LLC WQ	ACCESS:     569299	FORWARD:          0	MERGED:          0	TO_CACHE:     569299
LLC PQ	ACCESS:    3311067	FORWARD:          0	MERGED:          0	TO_CACHE:    3311067

LLC Dense regions hint to LLC: 0

RAW hits: 23976
Loads Generated: 37899740
Loads sent to L1D: 37875762
Stores Generated: 1443838
Stores sent to L1D: 1443842
Major fault: 0 Minor fault: 22021
Allocated PAGES: 22021
Prefetcher final stats
Training Unit Size: 207
Addr table size: 910864 910880


Triggers: 5541950
No Prediction: 1339015 24.1614
Stream end: 4107671
No translation: 4173695175 75310.9
Predictions: 5937730 107.142


Stream divergence: 1182692 21.3407
Stream divergence -- new stream: 0

DRAM Statistics
 CHANNEL 0
 RQ ROW_BUFFER_HIT:     986542  ROW_BUFFER_MISS:    2046455
 DBUS_CONGESTED:       2031
 WQ ROW_BUFFER_HIT:     137299  ROW_BUFFER_MISS:     331957  FULL:          0

 AVG_CONGESTED_CYCLE: 4
 All warmup complete: 2
Channel 0 Bank busy for read cycles: 0
Channel 0 Bank busy for write cycles: 0
Channel 0
Rank 0
0banks busy for read cycles: 71255477
0banks busy for write cycles: 213164
1banks busy for read cycles: 116133857
1banks busy for write cycles: 38542630
2banks busy for read cycles: 47713265
2banks busy for write cycles: 17289060
3banks busy for read cycles: 22561970
3banks busy for write cycles: 7236454
4banks busy for read cycles: 10119888
4banks busy for write cycles: 2835209
5banks busy for read cycles: 3955970
5banks busy for write cycles: 1029926
6banks busy for read cycles: 1356520
6banks busy for write cycles: 366590
7banks busy for read cycles: 477048
7banks busy for write cycles: 163400
8banks busy for read cycles: 681608
8banks busy for write cycles: 268965

CPU 0 Branch Prediction Accuracy: 96.822% MPKI: 4.71695 Average ROB Occupancy at Mispredict: 121.28
Branch types
NOT_BRANCH: 85157262 85.1573%
BRANCH_DIRECT_JUMP: 4499226 4.49923%
BRANCH_INDIRECT: 0 0%
BRANCH_CONDITIONAL: 10341463 10.3415%
BRANCH_DIRECT_CALL: 1016 0.001016%
BRANCH_INDIRECT_CALL: 0 0%
BRANCH_RETURN: 1016 0.001016%
BRANCH_OTHER: 0 0%

DRAM PAGES: 1048576
Allocated PAGES: 22021
