
*** ChampSim Multicore Out-of-Order Simulator ***

Warmup Instructions: 50000000
Simulation Instructions: 100000000
Number of CPUs: 1
LLC sets: 2048
LLC ways: 16
Off-chip DRAM Size: 4096 MB Channels: 1 Width: 64-bit Data Rate: 6400 MT/s
CPU 0 runs ./traces/GAP/sssp-10.trace.gz
.gz
CPU 0 Bimodal branch predictor
BTB has LRU replacement policy
ITLB has LRU replacement policy
DTLB has LRU replacement policy
STLB has LRU replacement policy
L1I has LRU replacement policy
L1D has LRU replacement policy
L2C has LRU replacement policy
LLC has LRU replacement policy
Heartbeat CPU 0 instructions: 10000001 cycles: 3244189 heartbeat IPC: 3.08243 cumulative IPC: 3.08243 (Simulation time: 0 hr 0 min 27 sec) 
Heartbeat CPU 0 instructions: 20000000 cycles: 6502480 heartbeat IPC: 3.06909 cumulative IPC: 3.07575 (Simulation time: 0 hr 0 min 55 sec) 
Heartbeat CPU 0 instructions: 30000001 cycles: 9790470 heartbeat IPC: 3.04137 cumulative IPC: 3.0642 (Simulation time: 0 hr 1 min 23 sec) 
Heartbeat CPU 0 instructions: 40000000 cycles: 13093913 heartbeat IPC: 3.02714 cumulative IPC: 3.05485 (Simulation time: 0 hr 1 min 51 sec) 
Heartbeat CPU 0 instructions: 50000001 cycles: 16407095 heartbeat IPC: 3.01825 cumulative IPC: 3.04746 (Simulation time: 0 hr 2 min 18 sec) 

Warmup complete CPU 0 instructions: 50000001 cycles: 16407095 (Simulation time: 0 hr 2 min 18 sec) 

Heartbeat CPU 0 instructions: 60000000 cycles: 53968639 heartbeat IPC: 0.26623 cumulative IPC: 0.26623 (Simulation time: 0 hr 3 min 5 sec) 
Heartbeat CPU 0 instructions: 70000000 cycles: 90220768 heartbeat IPC: 0.275846 cumulative IPC: 0.270952 (Simulation time: 0 hr 3 min 53 sec) 
Heartbeat CPU 0 instructions: 80000000 cycles: 125767155 heartbeat IPC: 0.281323 cumulative IPC: 0.274323 (Simulation time: 0 hr 4 min 40 sec) 
Heartbeat CPU 0 instructions: 90000000 cycles: 161735923 heartbeat IPC: 0.278019 cumulative IPC: 0.275238 (Simulation time: 0 hr 5 min 27 sec) 
Heartbeat CPU 0 instructions: 100000000 cycles: 196009666 heartbeat IPC: 0.291769 cumulative IPC: 0.278392 (Simulation time: 0 hr 6 min 15 sec) 
Heartbeat CPU 0 instructions: 110000001 cycles: 229761631 heartbeat IPC: 0.296279 cumulative IPC: 0.281222 (Simulation time: 0 hr 7 min 3 sec) 
Heartbeat CPU 0 instructions: 120000000 cycles: 263254745 heartbeat IPC: 0.298569 cumulative IPC: 0.283576 (Simulation time: 0 hr 7 min 51 sec) 
Heartbeat CPU 0 instructions: 130000002 cycles: 296287979 heartbeat IPC: 0.302725 cumulative IPC: 0.285836 (Simulation time: 0 hr 8 min 39 sec) 
Heartbeat CPU 0 instructions: 140000000 cycles: 329097251 heartbeat IPC: 0.304792 cumulative IPC: 0.287825 (Simulation time: 0 hr 9 min 28 sec) 
Heartbeat CPU 0 instructions: 150000000 cycles: 361821181 heartbeat IPC: 0.305587 cumulative IPC: 0.289508 (Simulation time: 0 hr 10 min 16 sec) 
Finished CPU 0 instructions: 100000003 cycles: 345414087 cumulative IPC: 0.289508 (Simulation time: 0 hr 10 min 16 sec) 

ChampSim completed all CPUs

Region of Interest Statistics

CPU 0 cumulative IPC: 0.289508 instructions: 100000003 cycles: 345414087
ITLB TOTAL     ACCESS:   12179789  HIT:   12179789  MISS:          0  HIT %:        100  MISS %:          0   MPKI: 0
ITLB LOAD TRANSLATION ACCESS:   12179789  HIT:   12179789  MISS:          0  HIT %:        100  MISS %:          0   MPKI: 0
ITLB PREFETCH  REQUESTED:          0  ISSUED:          0  USEFUL:          0  USELESS:          0
ITLB USEFUL LOAD PREFETCHES:          0 PREFETCH ISSUED TO LOWER LEVEL:          0  ACCURACY: -nan
ITLB TIMELY PREFETCHES:          0 LATE PREFETCHES: 0 DROPPED PREFETCHES: 0
ITLB PREFETCHES SAME FILL-ORIGIN LEVEL: 0 DIFFERENT FILL-ORIGIN LEVEL: 0
ITLB AVERAGE MISS LATENCY: -nan cycles
ITLB RQ	ACCESS:   12598059	FORWARD:          0	MERGED:     418271	TO_CACHE:   12179788

DTLB TOTAL     ACCESS:   20890969  HIT:   18746742  MISS:    2144227  HIT %:    89.7361  MISS %:    10.2639   MPKI: 21.4423
DTLB LOAD TRANSLATION ACCESS:   20890969  HIT:   18746742  MISS:    2144227  HIT %:    89.7361  MISS %:    10.2639   MPKI: 21.4423
DTLB PREFETCH  REQUESTED:          0  ISSUED:          0  USEFUL:          0  USELESS:          0
DTLB USEFUL LOAD PREFETCHES:          0 PREFETCH ISSUED TO LOWER LEVEL:          0  ACCURACY: -nan
DTLB TIMELY PREFETCHES:          0 LATE PREFETCHES: 0 DROPPED PREFETCHES: 0
DTLB PREFETCHES SAME FILL-ORIGIN LEVEL: 0 DIFFERENT FILL-ORIGIN LEVEL: 0
DTLB AVERAGE MISS LATENCY: 11.6268 cycles
DTLB RQ	ACCESS:   22447046	FORWARD:          0	MERGED:    1501146	TO_CACHE:   20945900

STLB TOTAL     ACCESS:    2144227  HIT:    2117295  MISS:      26932  HIT %:     98.744  MISS %:    1.25602   MPKI: 0.26932
STLB LOAD TRANSLATION ACCESS:    2144227  HIT:    2117295  MISS:      26932  HIT %:     98.744  MISS %:    1.25602   MPKI: 0.26932
STLB PREFETCH  REQUESTED:          0  ISSUED:          0  USEFUL:          0  USELESS:          0
STLB USEFUL LOAD PREFETCHES:          0 PREFETCH ISSUED TO LOWER LEVEL:          0  ACCURACY: -nan
STLB TIMELY PREFETCHES:          0 LATE PREFETCHES: 0 DROPPED PREFETCHES: 0
STLB PREFETCHES SAME FILL-ORIGIN LEVEL: 0 DIFFERENT FILL-ORIGIN LEVEL: 0
STLB AVERAGE MISS LATENCY: 187.019 cycles
STLB RQ	ACCESS:    2144227	FORWARD:          0	MERGED:          0	TO_CACHE:    2144227

STLB Hit, L1D data hit: 0
STLB Hit, L2C data hit: 0
STLB Hit, LLC data hit: 0
STLB Hit, LLC data miss: 0
STLB STLB hints to L2: 0
L1D TOTAL     ACCESS:   20339031  HIT:   14977114  MISS:    5361917  HIT %:    73.6373  MISS %:    26.3627   MPKI: 53.6192
L1D LOAD      ACCESS:   19039395  HIT:   13961655  MISS:    5077740  HIT %:    73.3304  MISS %:    26.6696   MPKI: 50.7774
L1D RFO       ACCESS:    1299636  HIT:    1015459  MISS:     284177  HIT %:    78.1341  MISS %:    21.8659   MPKI: 2.84177
L1D PREFETCH  REQUESTED:          0  ISSUED:          0  USEFUL:          0  USELESS:          0
L1D USEFUL LOAD PREFETCHES:          0 PREFETCH ISSUED TO LOWER LEVEL:          0  ACCURACY: -nan
L1D TIMELY PREFETCHES:          0 LATE PREFETCHES: 0 DROPPED PREFETCHES: 0
L1D PREFETCHES SAME FILL-ORIGIN LEVEL: 0 DIFFERENT FILL-ORIGIN LEVEL: 0
L1D AVERAGE MISS LATENCY: 101.117 cycles
L1D RQ	ACCESS:   37926389	FORWARD:          0	MERGED:   16884049	TO_CACHE:   21040316
L1D WQ	ACCESS:    1407209	FORWARD:       2024	MERGED:        479	TO_CACHE:    1406730

L1D UNIQUE REGIONS ACCESSED: 0
L1D REGIONS CONFLICTS: 0
L1D Cross Page Prefetch Requests: 0
L1D Same Page Prefetch Requests: 0
L1D ROI Sum of L1D PQ occupancy: 0
L1D PREFETCHES PUSHED FROM L2C: 0
L1I TOTAL     ACCESS:   12598059  HIT:   12598059  MISS:          0  HIT %:        100  MISS %:          0   MPKI: 0
L1I LOAD      ACCESS:   12598059  HIT:   12598059  MISS:          0  HIT %:        100  MISS %:          0   MPKI: 0
L1I PREFETCH  REQUESTED:          0  ISSUED:          0  USEFUL:          0  USELESS:          0
L1I USEFUL LOAD PREFETCHES:          0 PREFETCH ISSUED TO LOWER LEVEL:          0  ACCURACY: -nan
L1I TIMELY PREFETCHES:          0 LATE PREFETCHES: 0 DROPPED PREFETCHES: 0
L1I PREFETCHES SAME FILL-ORIGIN LEVEL: 0 DIFFERENT FILL-ORIGIN LEVEL: 0
L1I AVERAGE MISS LATENCY: -nan cycles
L1I RQ	ACCESS:   20415589	FORWARD:          0	MERGED:    7817530	TO_CACHE:   12598059

BTB TOTAL     ACCESS:   14398118  HIT:   14397997  MISS:        121  HIT %:    99.9992  MISS %: 0.000840388   MPKI: 0.00121
BTB BRANCH_DIRECT_JUMP	ACCESS:    4510857  HIT:    4510823  MISS:         34
BTB BRANCH_INDIRECT	ACCESS:          0  HIT:          0  MISS:          0
BTB BRANCH_CONDITIONAL	ACCESS:    9885341  HIT:    9885268  MISS:         73
BTB BRANCH_DIRECT_CALL	ACCESS:        960  HIT:        955  MISS:          5
BTB BRANCH_INDIRECT_CALL	ACCESS:          0  HIT:          0  MISS:          0
BTB BRANCH_RETURN	ACCESS:        960  HIT:        951  MISS:          9
BTB BRANCH_OTHER ACCESS:          0  HIT:          0  MISS:          0

L2C TOTAL     ACCESS:    6221432  HIT:    2135116  MISS:    4086316  HIT %:    34.3187  MISS %:    65.6813   MPKI: 40.8632
L2C LOAD      ACCESS:    5077739  HIT:    1107203  MISS:    3970536  HIT %:     21.805  MISS %:     78.195   MPKI: 39.7054
L2C DATA LOAD MPKI: 39.7054
L2C INSTRUCTION LOAD MPKI: 0
L2C RFO       ACCESS:     284177  HIT:     188941  MISS:      95236  HIT %:    66.4871  MISS %:    33.5129   MPKI: 0.95236
L2C WRITEBACK ACCESS:     827632  HIT:     826537  MISS:       1095  HIT %:    99.8677  MISS %:   0.132305   MPKI: 0.01095
L2C LOAD TRANSLATION ACCESS:      31884  HIT:      12435  MISS:      19449  HIT %:    39.0008  MISS %:    60.9992   MPKI: 0.19449
L2C PREFETCH  REQUESTED:          0  ISSUED:          0  USEFUL:          0  USELESS:          0
L2C USEFUL LOAD PREFETCHES:          0 PREFETCH ISSUED TO LOWER LEVEL:          0  ACCURACY: -nan
L2C TIMELY PREFETCHES:          0 LATE PREFETCHES: 0 DROPPED PREFETCHES: 0
L2C PREFETCHES SAME FILL-ORIGIN LEVEL: 0 DIFFERENT FILL-ORIGIN LEVEL: 0
L2C AVERAGE MISS LATENCY: 113.357 cycles
L2C RQ	ACCESS:    5393800	FORWARD:          0	MERGED:          0	TO_CACHE:    5393799
L2C WQ	ACCESS:     827632	FORWARD:          1	MERGED:          0	TO_CACHE:     827632

L2C Instructions Evicting Data 0
L2C Translations Evicting Data 19305
L2C Data Evicting Data 4046492
L2C Instructions Evicting Instructions 0
L2C Translations Evicting Instructions 0
L2C Data Evicting Instructions 0
L2C Instructions Evicting Translations 0
L2C Translations Evicting Translations 144
L2C Data Evicting Translations 19280
L2C Dense regions hint from L2: 0
PSCL5 TOTAL     ACCESS:      26932  HIT:      26932  MISS:          0  HIT %:        100  MISS %:          0   MPKI: 0
PSCL5 LOAD TRANSLATION ACCESS:      26932  HIT:      26932  MISS:          0  HIT %:        100  MISS %:          0   MPKI: 0
PSCL5 PREFETCH  REQUESTED:          0  ISSUED:          0  USEFUL:          0  USELESS:          0
PSCL5 USEFUL LOAD PREFETCHES:          0 PREFETCH ISSUED TO LOWER LEVEL:          0  ACCURACY: -nan
PSCL5 TIMELY PREFETCHES:          0 LATE PREFETCHES: 0 DROPPED PREFETCHES: 0
PSCL5 PREFETCHES SAME FILL-ORIGIN LEVEL: 0 DIFFERENT FILL-ORIGIN LEVEL: 0

PSCL4 TOTAL     ACCESS:      26932  HIT:      26932  MISS:          0  HIT %:        100  MISS %:          0   MPKI: 0
PSCL4 LOAD TRANSLATION ACCESS:      26932  HIT:      26932  MISS:          0  HIT %:        100  MISS %:          0   MPKI: 0
PSCL4 PREFETCH  REQUESTED:          0  ISSUED:          0  USEFUL:          0  USELESS:          0
PSCL4 USEFUL LOAD PREFETCHES:          0 PREFETCH ISSUED TO LOWER LEVEL:          0  ACCURACY: -nan
PSCL4 TIMELY PREFETCHES:          0 LATE PREFETCHES: 0 DROPPED PREFETCHES: 0
PSCL4 PREFETCHES SAME FILL-ORIGIN LEVEL: 0 DIFFERENT FILL-ORIGIN LEVEL: 0

PSCL3 TOTAL     ACCESS:      26932  HIT:      26932  MISS:          0  HIT %:        100  MISS %:          0   MPKI: 0
PSCL3 LOAD TRANSLATION ACCESS:      26932  HIT:      26932  MISS:          0  HIT %:        100  MISS %:          0   MPKI: 0
PSCL3 PREFETCH  REQUESTED:          0  ISSUED:          0  USEFUL:          0  USELESS:          0
PSCL3 USEFUL LOAD PREFETCHES:          0 PREFETCH ISSUED TO LOWER LEVEL:          0  ACCURACY: -nan
PSCL3 TIMELY PREFETCHES:          0 LATE PREFETCHES: 0 DROPPED PREFETCHES: 0
PSCL3 PREFETCHES SAME FILL-ORIGIN LEVEL: 0 DIFFERENT FILL-ORIGIN LEVEL: 0

PSCL2 TOTAL     ACCESS:      26932  HIT:      21978  MISS:       4954  HIT %:    81.6055  MISS %:    18.3945   MPKI: 0.04954
PSCL2 LOAD TRANSLATION ACCESS:      26932  HIT:      21978  MISS:       4954  HIT %:    81.6055  MISS %:    18.3945   MPKI: 0.04954
PSCL2 PREFETCH  REQUESTED:          0  ISSUED:          0  USEFUL:          0  USELESS:          0
PSCL2 USEFUL LOAD PREFETCHES:          0 PREFETCH ISSUED TO LOWER LEVEL:          0  ACCURACY: -nan
PSCL2 TIMELY PREFETCHES:          0 LATE PREFETCHES: 0 DROPPED PREFETCHES: 0
PSCL2 PREFETCHES SAME FILL-ORIGIN LEVEL: 0 DIFFERENT FILL-ORIGIN LEVEL: 0

LLC TOTAL     ACCESS:    4600913  HIT:    2418495  MISS:    2182418  HIT %:    52.5655  MISS %:    47.4345   MPKI: 21.8242
LLC LOAD      ACCESS:    3970536  HIT:    1866043  MISS:    2104493  HIT %:    46.9973  MISS %:    53.0027   MPKI: 21.0449
LLC RFO       ACCESS:      95236  HIT:      35042  MISS:      60194  HIT %:    36.7949  MISS %:    63.2051   MPKI: 0.60194
LLC WRITEBACK ACCESS:     515692  HIT:     512343  MISS:       3349  HIT %:    99.3506  MISS %:   0.649419   MPKI: 0.03349
LLC LOAD TRANSLATION ACCESS:      19449  HIT:       5067  MISS:      14382  HIT %:    26.0528  MISS %:    73.9472   MPKI: 0.14382
LLC PREFETCH  REQUESTED:          0  ISSUED:          0  USEFUL:          0  USELESS:          0
LLC USEFUL LOAD PREFETCHES:          0 PREFETCH ISSUED TO LOWER LEVEL:          0  ACCURACY: -nan
LLC TIMELY PREFETCHES:          0 LATE PREFETCHES: 0 DROPPED PREFETCHES: 0
LLC PREFETCHES SAME FILL-ORIGIN LEVEL: 0 DIFFERENT FILL-ORIGIN LEVEL: 0
LLC AVERAGE MISS LATENCY: 155.986 cycles
LLC RQ	ACCESS:    4085220	FORWARD:          0	MERGED:          0	TO_CACHE:    4085220
LLC WQ	ACCESS:     515692	FORWARD:          0	MERGED:          0	TO_CACHE:     515692

LLC Dense regions hint to LLC: 0

RAW hits: 26396
Loads Generated: 37952785
Loads sent to L1D: 37926389
Stores Generated: 1407209
Stores sent to L1D: 1407209
Major fault: 0 Minor fault: 22314
Allocated PAGES: 22314

DRAM Statistics
 CHANNEL 0
 RQ ROW_BUFFER_HIT:     520347  ROW_BUFFER_MISS:    1658712
 DBUS_CONGESTED:        813
 WQ ROW_BUFFER_HIT:     132068  ROW_BUFFER_MISS:     310696  FULL:          0

 AVG_CONGESTED_CYCLE: 4
 All warmup complete: 2
Channel 0 Bank busy for read cycles: 0
Channel 0 Bank busy for write cycles: 0
Channel 0
Rank 0
0banks busy for read cycles: 86748180
0banks busy for write cycles: 244311
1banks busy for read cycles: 129100792
1banks busy for write cycles: 45397969
2banks busy for read cycles: 44631903
2banks busy for write cycles: 16105151
3banks busy for read cycles: 12489113
3banks busy for write cycles: 4781087
4banks busy for read cycles: 2495461
4banks busy for write cycles: 1268237
5banks busy for read cycles: 406085
5banks busy for write cycles: 311119
6banks busy for read cycles: 175029
6banks busy for write cycles: 90227
7banks busy for read cycles: 186160
7banks busy for write cycles: 79438
8banks busy for read cycles: 602275
8banks busy for write cycles: 301551

CPU 0 Branch Prediction Accuracy: 96.9117% MPKI: 4.58487 Average ROB Occupancy at Mispredict: 123.882
Branch types
NOT_BRANCH: 85153798 85.1538%
BRANCH_DIRECT_JUMP: 4510857 4.51086%
BRANCH_INDIRECT: 0 0%
BRANCH_CONDITIONAL: 10333170 10.3332%
BRANCH_DIRECT_CALL: 960 0.00096%
BRANCH_INDIRECT_CALL: 0 0%
BRANCH_RETURN: 960 0.00096%
BRANCH_OTHER: 0 0%

DRAM PAGES: 1048576
Allocated PAGES: 22314
