
*** ChampSim Multicore Out-of-Order Simulator ***

Warmup Instructions: 50000000
Simulation Instructions: 100000000
Number of CPUs: 1
LLC sets: 2048
LLC ways: 16
Off-chip DRAM Size: 4096 MB Channels: 1 Width: 64-bit Data Rate: 6400 MT/s
CPU 0 runs ./traces/GAP/sssp-14.trace.gz
.gz
CPU 0 Bimodal branch predictor
BTB has LRU replacement policy
ITLB has LRU replacement policy
DTLB has LRU replacement policy
STLB has LRU replacement policy
L1I has LRU replacement policy
L1D has LRU replacement policy
Ideal ISB Prefetching
L2C has LRU replacement policy
LLC has LRU replacement policy
Heartbeat CPU 0 instructions: 10000000 cycles: 3247163 heartbeat IPC: 3.07961 cumulative IPC: 3.07961 (Simulation time: 0 hr 0 min 40 sec) 
Heartbeat CPU 0 instructions: 20000000 cycles: 6501066 heartbeat IPC: 3.07323 cumulative IPC: 3.07642 (Simulation time: 0 hr 1 min 39 sec) 
Heartbeat CPU 0 instructions: 30000001 cycles: 9793718 heartbeat IPC: 3.03707 cumulative IPC: 3.06319 (Simulation time: 0 hr 2 min 47 sec) 
Heartbeat CPU 0 instructions: 40000000 cycles: 13100719 heartbeat IPC: 3.02389 cumulative IPC: 3.05327 (Simulation time: 0 hr 3 min 58 sec) 
Heartbeat CPU 0 instructions: 50000000 cycles: 16421443 heartbeat IPC: 3.01139 cumulative IPC: 3.0448 (Simulation time: 0 hr 5 min 10 sec) 

Warmup complete CPU 0 instructions: 50000004 cycles: 16421444 (Simulation time: 0 hr 5 min 10 sec) 

Heartbeat CPU 0 instructions: 60000000 cycles: 54296877 heartbeat IPC: 0.264023 cumulative IPC: 0.264023 (Simulation time: 0 hr 6 min 45 sec) 
Heartbeat CPU 0 instructions: 70000001 cycles: 90691097 heartbeat IPC: 0.274769 cumulative IPC: 0.269289 (Simulation time: 0 hr 8 min 22 sec) 
Heartbeat CPU 0 instructions: 80000000 cycles: 125899904 heartbeat IPC: 0.28402 cumulative IPC: 0.274026 (Simulation time: 0 hr 9 min 58 sec) 
Heartbeat CPU 0 instructions: 90000003 cycles: 160295418 heartbeat IPC: 0.290736 cumulative IPC: 0.278021 (Simulation time: 0 hr 11 min 37 sec) 
Heartbeat CPU 0 instructions: 100000000 cycles: 194153716 heartbeat IPC: 0.295348 cumulative IPC: 0.281322 (Simulation time: 0 hr 13 min 17 sec) 
Heartbeat CPU 0 instructions: 110000000 cycles: 227895263 heartbeat IPC: 0.296371 cumulative IPC: 0.283723 (Simulation time: 0 hr 14 min 57 sec) 
Heartbeat CPU 0 instructions: 120000000 cycles: 261229671 heartbeat IPC: 0.29999 cumulative IPC: 0.285938 (Simulation time: 0 hr 16 min 39 sec) 
Heartbeat CPU 0 instructions: 130000003 cycles: 294198898 heartbeat IPC: 0.303313 cumulative IPC: 0.288 (Simulation time: 0 hr 18 min 20 sec) 
Heartbeat CPU 0 instructions: 140000000 cycles: 326963892 heartbeat IPC: 0.305204 cumulative IPC: 0.289815 (Simulation time: 0 hr 20 min 5 sec) 
Heartbeat CPU 0 instructions: 150000000 cycles: 359680404 heartbeat IPC: 0.305656 cumulative IPC: 0.291325 (Simulation time: 0 hr 21 min 48 sec) 
Finished CPU 0 instructions: 100000000 cycles: 343258961 cumulative IPC: 0.291325 (Simulation time: 0 hr 21 min 48 sec) 

ChampSim completed all CPUs

Region of Interest Statistics

CPU 0 cumulative IPC: 0.291325 instructions: 100000000 cycles: 343258961
ITLB TOTAL     ACCESS:   12196236  HIT:   12196236  MISS:          0  HIT %:        100  MISS %:          0   MPKI: 0
ITLB LOAD TRANSLATION ACCESS:   12196236  HIT:   12196236  MISS:          0  HIT %:        100  MISS %:          0   MPKI: 0
ITLB PREFETCH  REQUESTED:          0  ISSUED:          0  USEFUL:          0  USELESS:          0
ITLB USEFUL LOAD PREFETCHES:          0 PREFETCH ISSUED TO LOWER LEVEL:          0  ACCURACY: -nan
ITLB TIMELY PREFETCHES:          0 LATE PREFETCHES: 0 DROPPED PREFETCHES: 0
ITLB PREFETCHES SAME FILL-ORIGIN LEVEL: 0 DIFFERENT FILL-ORIGIN LEVEL: 0
ITLB AVERAGE MISS LATENCY: -nan cycles
ITLB RQ	ACCESS:   12616571	FORWARD:          0	MERGED:     420336	TO_CACHE:   12196235

DTLB TOTAL     ACCESS:   20881664  HIT:   18839650  MISS:    2042014  HIT %:     90.221  MISS %:    9.77898   MPKI: 20.4201
DTLB LOAD TRANSLATION ACCESS:   20881664  HIT:   18839650  MISS:    2042014  HIT %:     90.221  MISS %:    9.77898   MPKI: 20.4201
DTLB PREFETCH  REQUESTED:          0  ISSUED:          0  USEFUL:          0  USELESS:          0
DTLB USEFUL LOAD PREFETCHES:          0 PREFETCH ISSUED TO LOWER LEVEL:          0  ACCURACY: -nan
DTLB TIMELY PREFETCHES:          0 LATE PREFETCHES: 0 DROPPED PREFETCHES: 0
DTLB PREFETCHES SAME FILL-ORIGIN LEVEL: 0 DIFFERENT FILL-ORIGIN LEVEL: 0
DTLB AVERAGE MISS LATENCY: 11.8538 cycles
DTLB RQ	ACCESS:   22480420	FORWARD:          0	MERGED:    1541745	TO_CACHE:   20938675

STLB TOTAL     ACCESS:    2042014  HIT:    2014483  MISS:      27531  HIT %:    98.6518  MISS %:    1.34823   MPKI: 0.27531
STLB LOAD TRANSLATION ACCESS:    2042014  HIT:    2014483  MISS:      27531  HIT %:    98.6518  MISS %:    1.34823   MPKI: 0.27531
STLB PREFETCH  REQUESTED:          0  ISSUED:          0  USEFUL:          0  USELESS:          0
STLB USEFUL LOAD PREFETCHES:          0 PREFETCH ISSUED TO LOWER LEVEL:          0  ACCURACY: -nan
STLB TIMELY PREFETCHES:          0 LATE PREFETCHES: 0 DROPPED PREFETCHES: 0
STLB PREFETCHES SAME FILL-ORIGIN LEVEL: 0 DIFFERENT FILL-ORIGIN LEVEL: 0
STLB AVERAGE MISS LATENCY: 191.033 cycles
STLB RQ	ACCESS:    2042014	FORWARD:          0	MERGED:          0	TO_CACHE:    2042014

STLB Hit, L1D data hit: 0
STLB Hit, L2C data hit: 0
STLB Hit, LLC data hit: 0
STLB Hit, LLC data miss: 0
STLB STLB hints to L2: 0
L1D TOTAL     ACCESS:   20328516  HIT:   14975811  MISS:    5352705  HIT %:     73.669  MISS %:     26.331   MPKI: 53.5271
L1D LOAD      ACCESS:   19021590  HIT:   13956517  MISS:    5065073  HIT %:     73.372  MISS %:     26.628   MPKI: 50.6507
L1D RFO       ACCESS:    1306926  HIT:    1019294  MISS:     287632  HIT %:    77.9917  MISS %:    22.0083   MPKI: 2.87632
L1D PREFETCH  REQUESTED:          0  ISSUED:          0  USEFUL:          0  USELESS:          0
L1D USEFUL LOAD PREFETCHES:          0 PREFETCH ISSUED TO LOWER LEVEL:          0  ACCURACY: -nan
L1D TIMELY PREFETCHES:          0 LATE PREFETCHES: 0 DROPPED PREFETCHES: 0
L1D PREFETCHES SAME FILL-ORIGIN LEVEL: 0 DIFFERENT FILL-ORIGIN LEVEL: 0
L1D AVERAGE MISS LATENCY: 100.505 cycles
L1D RQ	ACCESS:   37918300	FORWARD:          0	MERGED:   16854026	TO_CACHE:   21062258
L1D WQ	ACCESS:    1418658	FORWARD:       2016	MERGED:        496	TO_CACHE:    1418162

L1D UNIQUE REGIONS ACCESSED: 0
L1D REGIONS CONFLICTS: 0
L1D Cross Page Prefetch Requests: 0
L1D Same Page Prefetch Requests: 0
L1D ROI Sum of L1D PQ occupancy: 0
L1D PREFETCHES PUSHED FROM L2C: 0
L1I TOTAL     ACCESS:   12616572  HIT:   12616572  MISS:          0  HIT %:        100  MISS %:          0   MPKI: 0
L1I LOAD      ACCESS:   12616572  HIT:   12616572  MISS:          0  HIT %:        100  MISS %:          0   MPKI: 0
L1I PREFETCH  REQUESTED:          0  ISSUED:          0  USEFUL:          0  USELESS:          0
L1I USEFUL LOAD PREFETCHES:          0 PREFETCH ISSUED TO LOWER LEVEL:          0  ACCURACY: -nan
L1I TIMELY PREFETCHES:          0 LATE PREFETCHES: 0 DROPPED PREFETCHES: 0
L1I PREFETCHES SAME FILL-ORIGIN LEVEL: 0 DIFFERENT FILL-ORIGIN LEVEL: 0
L1I AVERAGE MISS LATENCY: -nan cycles
L1I RQ	ACCESS:   20439393	FORWARD:          0	MERGED:    7822822	TO_CACHE:   12616571

BTB TOTAL     ACCESS:   14400412  HIT:   14400265  MISS:        147  HIT %:     99.999  MISS %:  0.0010208   MPKI: 0.00147
BTB BRANCH_DIRECT_JUMP	ACCESS:    4508499  HIT:    4508458  MISS:         41
BTB BRANCH_INDIRECT	ACCESS:          0  HIT:          0  MISS:          0
BTB BRANCH_CONDITIONAL	ACCESS:    9890017  HIT:    9889935  MISS:         82
BTB BRANCH_DIRECT_CALL	ACCESS:        948  HIT:        938  MISS:         10
BTB BRANCH_INDIRECT_CALL	ACCESS:          0  HIT:          0  MISS:          0
BTB BRANCH_RETURN	ACCESS:        948  HIT:        934  MISS:         14
BTB BRANCH_OTHER ACCESS:          0  HIT:          0  MISS:          0

L2C TOTAL     ACCESS:    6543391  HIT:    2407297  MISS:    4136094  HIT %:    36.7897  MISS %:    63.2103   MPKI: 41.3609
L2C LOAD      ACCESS:    5065073  HIT:    1048597  MISS:    4016476  HIT %:    20.7025  MISS %:    79.2975   MPKI: 40.1648
L2C DATA LOAD MPKI: 40.1648
L2C INSTRUCTION LOAD MPKI: 0
L2C RFO       ACCESS:     287632  HIT:     188990  MISS:      98642  HIT %:    65.7055  MISS %:    34.2945   MPKI: 0.98642
L2C PREFETCH  ACCESS:     326307  HIT:     326307  MISS:          0  HIT %:        100  MISS %:          0   MPKI: 0
AGUS PREFETCH L1 MISS: 0
L2C DATA PREFETCH MPKI: 0
L2C INSTRUCTION PREFETCH MPKI: 0
L2C WRITEBACK ACCESS:     832317  HIT:     831159  MISS:       1158  HIT %:    99.8609  MISS %:    0.13913   MPKI: 0.01158
L2C LOAD TRANSLATION ACCESS:      32062  HIT:      12244  MISS:      19818  HIT %:    38.1885  MISS %:    61.8115   MPKI: 0.19818
L2C PREFETCH  REQUESTED:    2941522  ISSUED:    2941522  USEFUL:          0  USELESS:          0
L2C USEFUL LOAD PREFETCHES:          0 PREFETCH ISSUED TO LOWER LEVEL:    2527647  ACCURACY: 0
L2C TIMELY PREFETCHES:          0 LATE PREFETCHES: 0 DROPPED PREFETCHES: 0
L2C PREFETCHES SAME FILL-ORIGIN LEVEL: 0 DIFFERENT FILL-ORIGIN LEVEL: 2527647
L2C AVERAGE MISS LATENCY: 111.064 cycles
L2C RQ	ACCESS:    5384767	FORWARD:          0	MERGED:          0	TO_CACHE:    5384767
L2C WQ	ACCESS:     832317	FORWARD:          0	MERGED:          0	TO_CACHE:     832317
L2C PQ	ACCESS:    2941522	FORWARD:          0	MERGED:      32029	TO_CACHE:    2909493

L2C Instructions Evicting Data 0
L2C Translations Evicting Data 19756
L2C Data Evicting Data 4095366
L2C Instructions Evicting Instructions 0
L2C Translations Evicting Instructions 0
L2C Data Evicting Instructions 0
L2C Instructions Evicting Translations 0
L2C Translations Evicting Translations 62
L2C Data Evicting Translations 19752
L2C Dense regions hint from L2: 0
PSCL5 TOTAL     ACCESS:      27531  HIT:      27531  MISS:          0  HIT %:        100  MISS %:          0   MPKI: 0
PSCL5 LOAD TRANSLATION ACCESS:      27531  HIT:      27531  MISS:          0  HIT %:        100  MISS %:          0   MPKI: 0
PSCL5 PREFETCH  REQUESTED:          0  ISSUED:          0  USEFUL:          0  USELESS:          0
PSCL5 USEFUL LOAD PREFETCHES:          0 PREFETCH ISSUED TO LOWER LEVEL:          0  ACCURACY: -nan
PSCL5 TIMELY PREFETCHES:          0 LATE PREFETCHES: 0 DROPPED PREFETCHES: 0
PSCL5 PREFETCHES SAME FILL-ORIGIN LEVEL: 0 DIFFERENT FILL-ORIGIN LEVEL: 0

PSCL4 TOTAL     ACCESS:      27531  HIT:      27531  MISS:          0  HIT %:        100  MISS %:          0   MPKI: 0
PSCL4 LOAD TRANSLATION ACCESS:      27531  HIT:      27531  MISS:          0  HIT %:        100  MISS %:          0   MPKI: 0
PSCL4 PREFETCH  REQUESTED:          0  ISSUED:          0  USEFUL:          0  USELESS:          0
PSCL4 USEFUL LOAD PREFETCHES:          0 PREFETCH ISSUED TO LOWER LEVEL:          0  ACCURACY: -nan
PSCL4 TIMELY PREFETCHES:          0 LATE PREFETCHES: 0 DROPPED PREFETCHES: 0
PSCL4 PREFETCHES SAME FILL-ORIGIN LEVEL: 0 DIFFERENT FILL-ORIGIN LEVEL: 0

PSCL3 TOTAL     ACCESS:      27531  HIT:      27531  MISS:          0  HIT %:        100  MISS %:          0   MPKI: 0
PSCL3 LOAD TRANSLATION ACCESS:      27531  HIT:      27531  MISS:          0  HIT %:        100  MISS %:          0   MPKI: 0
PSCL3 PREFETCH  REQUESTED:          0  ISSUED:          0  USEFUL:          0  USELESS:          0
PSCL3 USEFUL LOAD PREFETCHES:          0 PREFETCH ISSUED TO LOWER LEVEL:          0  ACCURACY: -nan
PSCL3 TIMELY PREFETCHES:          0 LATE PREFETCHES: 0 DROPPED PREFETCHES: 0
PSCL3 PREFETCHES SAME FILL-ORIGIN LEVEL: 0 DIFFERENT FILL-ORIGIN LEVEL: 0

PSCL2 TOTAL     ACCESS:      27531  HIT:      22998  MISS:       4533  HIT %:    83.5349  MISS %:    16.4651   MPKI: 0.04533
PSCL2 LOAD TRANSLATION ACCESS:      27531  HIT:      22998  MISS:       4533  HIT %:    83.5349  MISS %:    16.4651   MPKI: 0.04533
PSCL2 PREFETCH  REQUESTED:          0  ISSUED:          0  USEFUL:          0  USELESS:          0
PSCL2 USEFUL LOAD PREFETCHES:          0 PREFETCH ISSUED TO LOWER LEVEL:          0  ACCURACY: -nan
PSCL2 TIMELY PREFETCHES:          0 LATE PREFETCHES: 0 DROPPED PREFETCHES: 0
PSCL2 PREFETCHES SAME FILL-ORIGIN LEVEL: 0 DIFFERENT FILL-ORIGIN LEVEL: 0

LLC TOTAL     ACCESS:    7162834  HIT:    4122122  MISS:    3040712  HIT %:    57.5488  MISS %:    42.4512   MPKI: 30.4071
LLC LOAD      ACCESS:    4016475  HIT:    1905617  MISS:    2110858  HIT %:     47.445  MISS %:     52.555   MPKI: 21.1086
LLC RFO       ACCESS:      98642  HIT:      32953  MISS:      65689  HIT %:    33.4067  MISS %:    66.5933   MPKI: 0.65689
LLC PREFETCH  ACCESS:    2507741  HIT:    1669641  MISS:     838100  HIT %:    66.5795  MISS %:    33.4205   MPKI: 8.381
AGUS PREFETCH L1 MISS: 0
LLC WRITEBACK ACCESS:     520158  HIT:     509786  MISS:      10372  HIT %:     98.006  MISS %:    1.99401   MPKI: 0.10372
LLC LOAD TRANSLATION ACCESS:      19818  HIT:       4125  MISS:      15693  HIT %:    20.8144  MISS %:    79.1856   MPKI: 0.15693
LLC PREFETCH  REQUESTED:          0  ISSUED:          0  USEFUL:     311619  USELESS:     526649
LLC USEFUL LOAD PREFETCHES:     311619 PREFETCH ISSUED TO LOWER LEVEL:     849902  ACCURACY: 36.6653
LLC TIMELY PREFETCHES:     311619 LATE PREFETCHES: 11800 DROPPED PREFETCHES: 0
LLC PREFETCHES SAME FILL-ORIGIN LEVEL: 849902 DIFFERENT FILL-ORIGIN LEVEL: 0
LLC AVERAGE MISS LATENCY: 153.883 cycles
LLC RQ	ACCESS:    4134936	FORWARD:          0	MERGED:          0	TO_CACHE:    4134935
LLC WQ	ACCESS:     520158	FORWARD:          1	MERGED:          0	TO_CACHE:     520158
LLC PQ	ACCESS:    2527647	FORWARD:          0	MERGED:       4267	TO_CACHE:    2523380

LLC Dense regions hint to LLC: 0

RAW hits: 25536
Loads Generated: 37943842
Loads sent to L1D: 37918300
Stores Generated: 1418652
Stores sent to L1D: 1418658
Major fault: 0 Minor fault: 22130
Allocated PAGES: 22130
Prefetcher final stats
Training Unit Size: 208
Addr table size: 911846 911859


Triggers: 5692223
No Prediction: 1343726 23.6063
Stream end: 2821142
No translation: 2869910572 50418.1
Predictions: 4185613 73.5321


Stream divergence: 1197138 21.0311
Stream divergence -- new stream: 0

DRAM Statistics
 CHANNEL 0
 RQ ROW_BUFFER_HIT:     968983  ROW_BUFFER_MISS:    2061314
 DBUS_CONGESTED:       2329
 WQ ROW_BUFFER_HIT:     138104  ROW_BUFFER_MISS:     325811  FULL:          0

 AVG_CONGESTED_CYCLE: 4
 All warmup complete: 2
Channel 0 Bank busy for read cycles: 0
Channel 0 Bank busy for write cycles: 0
Channel 0
Rank 0
0banks busy for read cycles: 68421936
0banks busy for write cycles: 210528
1banks busy for read cycles: 116784007
1banks busy for write cycles: 38797207
2banks busy for read cycles: 50427605
2banks busy for write cycles: 17797981
3banks busy for read cycles: 23989340
3banks busy for write cycles: 7395268
4banks busy for read cycles: 9730561
4banks busy for write cycles: 2822222
5banks busy for read cycles: 3260577
5banks busy for write cycles: 978402
6banks busy for read cycles: 943640
6banks busy for write cycles: 344229
7banks busy for read cycles: 336458
7banks busy for write cycles: 133306
8banks busy for read cycles: 617052
8banks busy for write cycles: 268643

CPU 0 Branch Prediction Accuracy: 96.8958% MPKI: 4.60791 Average ROB Occupancy at Mispredict: 122.986
Branch types
NOT_BRANCH: 85155829 85.1558%
BRANCH_DIRECT_JUMP: 4508499 4.5085%
BRANCH_INDIRECT: 0 0%
BRANCH_CONDITIONAL: 10333630 10.3336%
BRANCH_DIRECT_CALL: 948 0.000948%
BRANCH_INDIRECT_CALL: 0 0%
BRANCH_RETURN: 948 0.000948%
BRANCH_OTHER: 0 0%

DRAM PAGES: 1048576
Allocated PAGES: 22130
