
*** ChampSim Multicore Out-of-Order Simulator ***

Warmup Instructions: 50000000
Simulation Instructions: 100000000
Number of CPUs: 1
LLC sets: 2048
LLC ways: 16
Off-chip DRAM Size: 4096 MB Channels: 1 Width: 64-bit Data Rate: 6400 MT/s
CPU 0 runs ./traces/GAP/sssp-5.trace.gz
.gz
CPU 0 Bimodal branch predictor
BTB has LRU replacement policy
ITLB has LRU replacement policy
DTLB has LRU replacement policy
STLB has LRU replacement policy
L1I has LRU replacement policy
L1D has LRU replacement policy
Ideal ISB Prefetching
L2C has LRU replacement policy
LLC has LRU replacement policy
Heartbeat CPU 0 instructions: 10000003 cycles: 3239956 heartbeat IPC: 3.08646 cumulative IPC: 3.08646 (Simulation time: 0 hr 0 min 39 sec) 
Heartbeat CPU 0 instructions: 20000000 cycles: 6502821 heartbeat IPC: 3.06479 cumulative IPC: 3.07559 (Simulation time: 0 hr 1 min 40 sec) 
Heartbeat CPU 0 instructions: 30000001 cycles: 9790066 heartbeat IPC: 3.04206 cumulative IPC: 3.06433 (Simulation time: 0 hr 2 min 47 sec) 
Heartbeat CPU 0 instructions: 40000000 cycles: 13097221 heartbeat IPC: 3.02375 cumulative IPC: 3.05408 (Simulation time: 0 hr 3 min 57 sec) 
Heartbeat CPU 0 instructions: 50000001 cycles: 16411562 heartbeat IPC: 3.01719 cumulative IPC: 3.04663 (Simulation time: 0 hr 5 min 10 sec) 

Warmup complete CPU 0 instructions: 50000001 cycles: 16411562 (Simulation time: 0 hr 5 min 10 sec) 

Heartbeat CPU 0 instructions: 60000000 cycles: 53579770 heartbeat IPC: 0.269047 cumulative IPC: 0.269047 (Simulation time: 0 hr 6 min 44 sec) 
Heartbeat CPU 0 instructions: 70000001 cycles: 89861082 heartbeat IPC: 0.275624 cumulative IPC: 0.272296 (Simulation time: 0 hr 8 min 21 sec) 
Heartbeat CPU 0 instructions: 80000000 cycles: 126003102 heartbeat IPC: 0.276686 cumulative IPC: 0.273744 (Simulation time: 0 hr 9 min 56 sec) 
Heartbeat CPU 0 instructions: 90000001 cycles: 160889482 heartbeat IPC: 0.286645 cumulative IPC: 0.276859 (Simulation time: 0 hr 11 min 33 sec) 
Heartbeat CPU 0 instructions: 100000000 cycles: 195236181 heartbeat IPC: 0.291149 cumulative IPC: 0.279604 (Simulation time: 0 hr 13 min 14 sec) 
Heartbeat CPU 0 instructions: 110000002 cycles: 228839273 heartbeat IPC: 0.297592 cumulative IPC: 0.282449 (Simulation time: 0 hr 14 min 54 sec) 
Heartbeat CPU 0 instructions: 120000000 cycles: 261900625 heartbeat IPC: 0.302468 cumulative IPC: 0.285145 (Simulation time: 0 hr 16 min 36 sec) 
Heartbeat CPU 0 instructions: 130000000 cycles: 295089704 heartbeat IPC: 0.301304 cumulative IPC: 0.28707 (Simulation time: 0 hr 18 min 19 sec) 
Heartbeat CPU 0 instructions: 140000000 cycles: 327880508 heartbeat IPC: 0.304964 cumulative IPC: 0.288953 (Simulation time: 0 hr 20 min 3 sec) 
Heartbeat CPU 0 instructions: 150000000 cycles: 360331308 heartbeat IPC: 0.308159 cumulative IPC: 0.290765 (Simulation time: 0 hr 21 min 47 sec) 
Finished CPU 0 instructions: 100000003 cycles: 343919747 cumulative IPC: 0.290766 (Simulation time: 0 hr 21 min 47 sec) 

ChampSim completed all CPUs

Region of Interest Statistics

CPU 0 cumulative IPC: 0.290766 instructions: 100000003 cycles: 343919747
ITLB TOTAL     ACCESS:   12194375  HIT:   12194375  MISS:          0  HIT %:        100  MISS %:          0   MPKI: 0
ITLB LOAD TRANSLATION ACCESS:   12194375  HIT:   12194375  MISS:          0  HIT %:        100  MISS %:          0   MPKI: 0
ITLB PREFETCH  REQUESTED:          0  ISSUED:          0  USEFUL:          0  USELESS:          0
ITLB USEFUL LOAD PREFETCHES:          0 PREFETCH ISSUED TO LOWER LEVEL:          0  ACCURACY: -nan
ITLB TIMELY PREFETCHES:          0 LATE PREFETCHES: 0 DROPPED PREFETCHES: 0
ITLB PREFETCHES SAME FILL-ORIGIN LEVEL: 0 DIFFERENT FILL-ORIGIN LEVEL: 0
ITLB AVERAGE MISS LATENCY: -nan cycles
ITLB RQ	ACCESS:   12622419	FORWARD:          0	MERGED:     428044	TO_CACHE:   12194375

DTLB TOTAL     ACCESS:   20949260  HIT:   18964986  MISS:    1984274  HIT %:    90.5282  MISS %:    9.47181   MPKI: 19.8427
DTLB LOAD TRANSLATION ACCESS:   20949260  HIT:   18964986  MISS:    1984274  HIT %:    90.5282  MISS %:    9.47181   MPKI: 19.8427
DTLB PREFETCH  REQUESTED:          0  ISSUED:          0  USEFUL:          0  USELESS:          0
DTLB USEFUL LOAD PREFETCHES:          0 PREFETCH ISSUED TO LOWER LEVEL:          0  ACCURACY: -nan
DTLB TIMELY PREFETCHES:          0 LATE PREFETCHES: 0 DROPPED PREFETCHES: 0
DTLB PREFETCHES SAME FILL-ORIGIN LEVEL: 0 DIFFERENT FILL-ORIGIN LEVEL: 0
DTLB AVERAGE MISS LATENCY: 11.8747 cycles
DTLB RQ	ACCESS:   22546986	FORWARD:          0	MERGED:    1540547	TO_CACHE:   21006439

STLB TOTAL     ACCESS:    1984274  HIT:    1957711  MISS:      26563  HIT %:    98.6613  MISS %:    1.33868   MPKI: 0.26563
STLB LOAD TRANSLATION ACCESS:    1984274  HIT:    1957711  MISS:      26563  HIT %:    98.6613  MISS %:    1.33868   MPKI: 0.26563
STLB PREFETCH  REQUESTED:          0  ISSUED:          0  USEFUL:          0  USELESS:          0
STLB USEFUL LOAD PREFETCHES:          0 PREFETCH ISSUED TO LOWER LEVEL:          0  ACCURACY: -nan
STLB TIMELY PREFETCHES:          0 LATE PREFETCHES: 0 DROPPED PREFETCHES: 0
STLB PREFETCHES SAME FILL-ORIGIN LEVEL: 0 DIFFERENT FILL-ORIGIN LEVEL: 0
STLB AVERAGE MISS LATENCY: 194.157 cycles
STLB RQ	ACCESS:    1984274	FORWARD:          0	MERGED:          0	TO_CACHE:    1984274

STLB Hit, L1D data hit: 0
STLB Hit, L2C data hit: 0
STLB Hit, LLC data hit: 0
STLB Hit, LLC data miss: 0
STLB STLB hints to L2: 0
L1D TOTAL     ACCESS:   20394283  HIT:   15074233  MISS:    5320050  HIT %:     73.914  MISS %:     26.086   MPKI: 53.2005
L1D LOAD      ACCESS:   19062438  HIT:   14031160  MISS:    5031278  HIT %:    73.6063  MISS %:    26.3937   MPKI: 50.3128
L1D RFO       ACCESS:    1331845  HIT:    1043073  MISS:     288772  HIT %:    78.3179  MISS %:    21.6821   MPKI: 2.88772
L1D PREFETCH  REQUESTED:          0  ISSUED:          0  USEFUL:          0  USELESS:          0
L1D USEFUL LOAD PREFETCHES:          0 PREFETCH ISSUED TO LOWER LEVEL:          0  ACCURACY: -nan
L1D TIMELY PREFETCHES:          0 LATE PREFETCHES: 0 DROPPED PREFETCHES: 0
L1D PREFETCHES SAME FILL-ORIGIN LEVEL: 0 DIFFERENT FILL-ORIGIN LEVEL: 0
L1D AVERAGE MISS LATENCY: 100.752 cycles
L1D RQ	ACCESS:   37875794	FORWARD:          0	MERGED:   16770401	TO_CACHE:   21103659
L1D WQ	ACCESS:    1443842	FORWARD:       1734	MERGED:        515	TO_CACHE:    1443327

L1D UNIQUE REGIONS ACCESSED: 0
L1D REGIONS CONFLICTS: 0
L1D Cross Page Prefetch Requests: 0
L1D Same Page Prefetch Requests: 0
L1D ROI Sum of L1D PQ occupancy: 0
L1D PREFETCHES PUSHED FROM L2C: 0
L1I TOTAL     ACCESS:   12622418  HIT:   12622418  MISS:          0  HIT %:        100  MISS %:          0   MPKI: 0
L1I LOAD      ACCESS:   12622418  HIT:   12622418  MISS:          0  HIT %:        100  MISS %:          0   MPKI: 0
L1I PREFETCH  REQUESTED:          0  ISSUED:          0  USEFUL:          0  USELESS:          0
L1I USEFUL LOAD PREFETCHES:          0 PREFETCH ISSUED TO LOWER LEVEL:          0  ACCURACY: -nan
L1I TIMELY PREFETCHES:          0 LATE PREFETCHES: 0 DROPPED PREFETCHES: 0
L1I PREFETCHES SAME FILL-ORIGIN LEVEL: 0 DIFFERENT FILL-ORIGIN LEVEL: 0
L1I AVERAGE MISS LATENCY: -nan cycles
L1I RQ	ACCESS:   20375120	FORWARD:          0	MERGED:    7752701	TO_CACHE:   12622419

BTB TOTAL     ACCESS:   14384211  HIT:   14384089  MISS:        122  HIT %:    99.9992  MISS %: 0.000848152   MPKI: 0.00122
BTB BRANCH_DIRECT_JUMP	ACCESS:    4499227  HIT:    4499194  MISS:         33
BTB BRANCH_INDIRECT	ACCESS:          0  HIT:          0  MISS:          0
BTB BRANCH_CONDITIONAL	ACCESS:    9882952  HIT:    9882878  MISS:         74
BTB BRANCH_DIRECT_CALL	ACCESS:       1016  HIT:       1011  MISS:          5
BTB BRANCH_INDIRECT_CALL	ACCESS:          0  HIT:          0  MISS:          0
BTB BRANCH_RETURN	ACCESS:       1016  HIT:       1006  MISS:         10
BTB BRANCH_OTHER ACCESS:          0  HIT:          0  MISS:          0

L2C TOTAL     ACCESS:    6513368  HIT:    2383359  MISS:    4130009  HIT %:    36.5918  MISS %:    63.4082   MPKI: 41.3001
L2C LOAD      ACCESS:    5031278  HIT:    1019871  MISS:    4011407  HIT %:    20.2706  MISS %:    79.7294   MPKI: 40.1141
L2C DATA LOAD MPKI: 40.1141
L2C INSTRUCTION LOAD MPKI: 0
L2C RFO       ACCESS:     288772  HIT:     190542  MISS:      98230  HIT %:    65.9835  MISS %:    34.0165   MPKI: 0.9823
L2C PREFETCH  ACCESS:     321213  HIT:     321213  MISS:          0  HIT %:        100  MISS %:          0   MPKI: 0
AGUS PREFETCH L1 MISS: 0
L2C DATA PREFETCH MPKI: 0
L2C INSTRUCTION PREFETCH MPKI: 0
L2C WRITEBACK ACCESS:     841060  HIT:     839674  MISS:       1386  HIT %:    99.8352  MISS %:   0.164792   MPKI: 0.01386
L2C LOAD TRANSLATION ACCESS:      31045  HIT:      12059  MISS:      18986  HIT %:    38.8436  MISS %:    61.1564   MPKI: 0.18986
L2C PREFETCH  REQUESTED:    2946323  ISSUED:    2946323  USEFUL:          0  USELESS:          0
L2C USEFUL LOAD PREFETCHES:          0 PREFETCH ISSUED TO LOWER LEVEL:    2534677  ACCURACY: 0
L2C TIMELY PREFETCHES:          0 LATE PREFETCHES: 0 DROPPED PREFETCHES: 0
L2C PREFETCHES SAME FILL-ORIGIN LEVEL: 0 DIFFERENT FILL-ORIGIN LEVEL: 2534677
L2C AVERAGE MISS LATENCY: 110.86 cycles
L2C RQ	ACCESS:    5351096	FORWARD:          0	MERGED:          0	TO_CACHE:    5351096
L2C WQ	ACCESS:     841060	FORWARD:          0	MERGED:          0	TO_CACHE:     841060
L2C PQ	ACCESS:    2946323	FORWARD:          0	MERGED:      32976	TO_CACHE:    2913347

L2C Instructions Evicting Data 0
L2C Translations Evicting Data 18895
L2C Data Evicting Data 4090766
L2C Instructions Evicting Instructions 0
L2C Translations Evicting Instructions 0
L2C Data Evicting Instructions 0
L2C Instructions Evicting Translations 0
L2C Translations Evicting Translations 91
L2C Data Evicting Translations 18871
L2C Dense regions hint from L2: 0
PSCL5 TOTAL     ACCESS:      26563  HIT:      26563  MISS:          0  HIT %:        100  MISS %:          0   MPKI: 0
PSCL5 LOAD TRANSLATION ACCESS:      26563  HIT:      26563  MISS:          0  HIT %:        100  MISS %:          0   MPKI: 0
PSCL5 PREFETCH  REQUESTED:          0  ISSUED:          0  USEFUL:          0  USELESS:          0
PSCL5 USEFUL LOAD PREFETCHES:          0 PREFETCH ISSUED TO LOWER LEVEL:          0  ACCURACY: -nan
PSCL5 TIMELY PREFETCHES:          0 LATE PREFETCHES: 0 DROPPED PREFETCHES: 0
PSCL5 PREFETCHES SAME FILL-ORIGIN LEVEL: 0 DIFFERENT FILL-ORIGIN LEVEL: 0

PSCL4 TOTAL     ACCESS:      26563  HIT:      26563  MISS:          0  HIT %:        100  MISS %:          0   MPKI: 0
PSCL4 LOAD TRANSLATION ACCESS:      26563  HIT:      26563  MISS:          0  HIT %:        100  MISS %:          0   MPKI: 0
PSCL4 PREFETCH  REQUESTED:          0  ISSUED:          0  USEFUL:          0  USELESS:          0
PSCL4 USEFUL LOAD PREFETCHES:          0 PREFETCH ISSUED TO LOWER LEVEL:          0  ACCURACY: -nan
PSCL4 TIMELY PREFETCHES:          0 LATE PREFETCHES: 0 DROPPED PREFETCHES: 0
PSCL4 PREFETCHES SAME FILL-ORIGIN LEVEL: 0 DIFFERENT FILL-ORIGIN LEVEL: 0

PSCL3 TOTAL     ACCESS:      26563  HIT:      26563  MISS:          0  HIT %:        100  MISS %:          0   MPKI: 0
PSCL3 LOAD TRANSLATION ACCESS:      26563  HIT:      26563  MISS:          0  HIT %:        100  MISS %:          0   MPKI: 0
PSCL3 PREFETCH  REQUESTED:          0  ISSUED:          0  USEFUL:          0  USELESS:          0
PSCL3 USEFUL LOAD PREFETCHES:          0 PREFETCH ISSUED TO LOWER LEVEL:          0  ACCURACY: -nan
PSCL3 TIMELY PREFETCHES:          0 LATE PREFETCHES: 0 DROPPED PREFETCHES: 0
PSCL3 PREFETCHES SAME FILL-ORIGIN LEVEL: 0 DIFFERENT FILL-ORIGIN LEVEL: 0

PSCL2 TOTAL     ACCESS:      26563  HIT:      22079  MISS:       4484  HIT %:    83.1194  MISS %:    16.8806   MPKI: 0.04484
PSCL2 LOAD TRANSLATION ACCESS:      26563  HIT:      22079  MISS:       4484  HIT %:    83.1194  MISS %:    16.8806   MPKI: 0.04484
PSCL2 PREFETCH  REQUESTED:          0  ISSUED:          0  USEFUL:          0  USELESS:          0
PSCL2 USEFUL LOAD PREFETCHES:          0 PREFETCH ISSUED TO LOWER LEVEL:          0  ACCURACY: -nan
PSCL2 TIMELY PREFETCHES:          0 LATE PREFETCHES: 0 DROPPED PREFETCHES: 0
PSCL2 PREFETCHES SAME FILL-ORIGIN LEVEL: 0 DIFFERENT FILL-ORIGIN LEVEL: 0

LLC TOTAL     ACCESS:    7169830  HIT:    4118611  MISS:    3051219  HIT %:    57.4436  MISS %:    42.5564   MPKI: 30.5122
LLC LOAD      ACCESS:    4011407  HIT:    1900441  MISS:    2110966  HIT %:    47.3759  MISS %:    52.6241   MPKI: 21.1097
LLC RFO       ACCESS:      98230  HIT:      31631  MISS:      66599  HIT %:     32.201  MISS %:     67.799   MPKI: 0.66599
LLC PREFETCH  ACCESS:    2512776  HIT:    1665165  MISS:     847611  HIT %:    66.2679  MISS %:    33.7321   MPKI: 8.47611
AGUS PREFETCH L1 MISS: 0
LLC WRITEBACK ACCESS:     528431  HIT:     517865  MISS:      10566  HIT %:    98.0005  MISS %:     1.9995   MPKI: 0.10566
LLC LOAD TRANSLATION ACCESS:      18986  HIT:       3509  MISS:      15477  HIT %:     18.482  MISS %:     81.518   MPKI: 0.15477
LLC PREFETCH  REQUESTED:          0  ISSUED:          0  USEFUL:     320319  USELESS:     527353
LLC USEFUL LOAD PREFETCHES:     320319 PREFETCH ISSUED TO LOWER LEVEL:     860586  ACCURACY: 37.221
LLC TIMELY PREFETCHES:     320319 LATE PREFETCHES: 12975 DROPPED PREFETCHES: 0
LLC PREFETCHES SAME FILL-ORIGIN LEVEL: 860586 DIFFERENT FILL-ORIGIN LEVEL: 0
LLC AVERAGE MISS LATENCY: 153.05 cycles
LLC RQ	ACCESS:    4128624	FORWARD:          0	MERGED:          0	TO_CACHE:    4128624
LLC WQ	ACCESS:     528432	FORWARD:          0	MERGED:          0	TO_CACHE:     528432
LLC PQ	ACCESS:    2534677	FORWARD:          0	MERGED:       4711	TO_CACHE:    2529966

LLC Dense regions hint to LLC: 0

RAW hits: 23943
Loads Generated: 37899739
Loads sent to L1D: 37875794
Stores Generated: 1443838
Stores sent to L1D: 1443842
Major fault: 0 Minor fault: 22021
Allocated PAGES: 22021
Prefetcher final stats
Training Unit Size: 204
Addr table size: 910274 910289


Triggers: 5698053
No Prediction: 1342244 23.5562
Stream end: 2817110
No translation: 2865816793 50294.7
Predictions: 4204760 73.7929


Stream divergence: 1197516 21.0162
Stream divergence -- new stream: 0

DRAM Statistics
 CHANNEL 0
 RQ ROW_BUFFER_HIT:     993987  ROW_BUFFER_MISS:    2046633
 DBUS_CONGESTED:       2469
 WQ ROW_BUFFER_HIT:     140629  ROW_BUFFER_MISS:     331417  FULL:          0

 AVG_CONGESTED_CYCLE: 4
 All warmup complete: 2
Channel 0 Bank busy for read cycles: 0
Channel 0 Bank busy for write cycles: 0
Channel 0
Rank 0
0banks busy for read cycles: 68805345
0banks busy for write cycles: 212491
1banks busy for read cycles: 116911438
1banks busy for write cycles: 38949066
2banks busy for read cycles: 50128714
2banks busy for write cycles: 17953837
3banks busy for read cycles: 23771165
3banks busy for write cycles: 7574129
4banks busy for read cycles: 9721107
4banks busy for write cycles: 2909167
5banks busy for read cycles: 3274049
5banks busy for write cycles: 1038272
6banks busy for read cycles: 957871
6banks busy for write cycles: 336899
7banks busy for read cycles: 347657
7banks busy for write cycles: 152483
8banks busy for read cycles: 613235
8banks busy for write cycles: 262823

CPU 0 Branch Prediction Accuracy: 96.822% MPKI: 4.71695 Average ROB Occupancy at Mispredict: 121.289
Branch types
NOT_BRANCH: 85157281 85.1573%
BRANCH_DIRECT_JUMP: 4499227 4.49923%
BRANCH_INDIRECT: 0 0%
BRANCH_CONDITIONAL: 10341465 10.3415%
BRANCH_DIRECT_CALL: 1016 0.001016%
BRANCH_INDIRECT_CALL: 0 0%
BRANCH_RETURN: 1016 0.001016%
BRANCH_OTHER: 0 0%

DRAM PAGES: 1048576
Allocated PAGES: 22021
