
*** ChampSim Multicore Out-of-Order Simulator ***

Warmup Instructions: 50000000
Simulation Instructions: 100000000
Number of CPUs: 1
LLC sets: 2048
LLC ways: 16
Off-chip DRAM Size: 4096 MB Channels: 1 Width: 64-bit Data Rate: 6400 MT/s
CPU 0 runs ./traces/GAP/sssp-5.trace.gz
.gz
CPU 0 Bimodal branch predictor
BTB has LRU replacement policy
ITLB has LRU replacement policy
DTLB has LRU replacement policy
STLB has LRU replacement policy
L1I has LRU replacement policy
L1D has LRU replacement policy
L2C has LRU replacement policy
LLC has LRU replacement policy
Heartbeat CPU 0 instructions: 10000001 cycles: 3239747 heartbeat IPC: 3.08666 cumulative IPC: 3.08666 (Simulation time: 0 hr 2 min 48 sec) 
Heartbeat CPU 0 instructions: 20000000 cycles: 6501752 heartbeat IPC: 3.0656 cumulative IPC: 3.07609 (Simulation time: 0 hr 6 min 11 sec) 
Heartbeat CPU 0 instructions: 30000001 cycles: 9788339 heartbeat IPC: 3.04267 cumulative IPC: 3.06487 (Simulation time: 0 hr 9 min 39 sec) 
Heartbeat CPU 0 instructions: 40000000 cycles: 13095371 heartbeat IPC: 3.02386 cumulative IPC: 3.05451 (Simulation time: 0 hr 13 min 9 sec) 
Heartbeat CPU 0 instructions: 50000001 cycles: 16407887 heartbeat IPC: 3.01885 cumulative IPC: 3.04732 (Simulation time: 0 hr 16 min 40 sec) 

Warmup complete CPU 0 instructions: 50000001 cycles: 16407887 (Simulation time: 0 hr 16 min 40 sec) 

Heartbeat CPU 0 instructions: 60000000 cycles: 47950213 heartbeat IPC: 0.317034 cumulative IPC: 0.317034 (Simulation time: 0 hr 17 min 29 sec) 
Heartbeat CPU 0 instructions: 70000001 cycles: 78573076 heartbeat IPC: 0.326553 cumulative IPC: 0.321723 (Simulation time: 0 hr 18 min 18 sec) 
Heartbeat CPU 0 instructions: 80000000 cycles: 108795547 heartbeat IPC: 0.33088 cumulative IPC: 0.324719 (Simulation time: 0 hr 19 min 7 sec) 
Heartbeat CPU 0 instructions: 90000001 cycles: 138211200 heartbeat IPC: 0.339955 cumulative IPC: 0.328398 (Simulation time: 0 hr 19 min 56 sec) 
Heartbeat CPU 0 instructions: 100000000 cycles: 167035229 heartbeat IPC: 0.346933 cumulative IPC: 0.331945 (Simulation time: 0 hr 20 min 46 sec) 
Heartbeat CPU 0 instructions: 110000002 cycles: 195163053 heartbeat IPC: 0.35552 cumulative IPC: 0.335655 (Simulation time: 0 hr 21 min 36 sec) 
Heartbeat CPU 0 instructions: 120000000 cycles: 222724640 heartbeat IPC: 0.362824 cumulative IPC: 0.339284 (Simulation time: 0 hr 22 min 26 sec) 
Heartbeat CPU 0 instructions: 130000000 cycles: 250418680 heartbeat IPC: 0.361089 cumulative IPC: 0.341865 (Simulation time: 0 hr 23 min 16 sec) 
Heartbeat CPU 0 instructions: 140000000 cycles: 277808846 heartbeat IPC: 0.365095 cumulative IPC: 0.344299 (Simulation time: 0 hr 24 min 6 sec) 
Heartbeat CPU 0 instructions: 150000000 cycles: 304863064 heartbeat IPC: 0.369628 cumulative IPC: 0.346674 (Simulation time: 0 hr 24 min 56 sec) 
Finished CPU 0 instructions: 100000003 cycles: 288455178 cumulative IPC: 0.346674 (Simulation time: 0 hr 24 min 56 sec) 

ChampSim completed all CPUs

Region of Interest Statistics

CPU 0 cumulative IPC: 0.346674 instructions: 100000003 cycles: 288455178
ITLB TOTAL     ACCESS:   12075165  HIT:   12075165  MISS:          0  HIT %:        100  MISS %:          0   MPKI: 0
ITLB LOAD TRANSLATION ACCESS:   12075165  HIT:   12075165  MISS:          0  HIT %:        100  MISS %:          0   MPKI: 0
ITLB PREFETCH  REQUESTED:          0  ISSUED:          0  USEFUL:          0  USELESS:          0
ITLB USEFUL LOAD PREFETCHES:          0 PREFETCH ISSUED TO LOWER LEVEL:          0  ACCURACY: -nan
ITLB TIMELY PREFETCHES:          0 LATE PREFETCHES: 0 DROPPED PREFETCHES: 0
ITLB PREFETCHES SAME FILL-ORIGIN LEVEL: 0 DIFFERENT FILL-ORIGIN LEVEL: 0
ITLB AVERAGE MISS LATENCY: -nan cycles
ITLB RQ	ACCESS:   12503216	FORWARD:          0	MERGED:     428051	TO_CACHE:   12075165

DTLB TOTAL     ACCESS:   21119203  HIT:   19134954  MISS:    1984249  HIT %:    90.6045  MISS %:    9.39547   MPKI: 19.8425
DTLB LOAD TRANSLATION ACCESS:   21119203  HIT:   19134954  MISS:    1984249  HIT %:    90.6045  MISS %:    9.39547   MPKI: 19.8425
DTLB PREFETCH  REQUESTED:          0  ISSUED:          0  USEFUL:          0  USELESS:          0
DTLB USEFUL LOAD PREFETCHES:          0 PREFETCH ISSUED TO LOWER LEVEL:          0  ACCURACY: -nan
DTLB TIMELY PREFETCHES:          0 LATE PREFETCHES: 0 DROPPED PREFETCHES: 0
DTLB PREFETCHES SAME FILL-ORIGIN LEVEL: 0 DIFFERENT FILL-ORIGIN LEVEL: 0
DTLB AVERAGE MISS LATENCY: 11.9222 cycles
DTLB RQ	ACCESS:   22366582	FORWARD:          0	MERGED:    1163991	TO_CACHE:   21202591

STLB TOTAL     ACCESS:    6223242  HIT:    6196569  MISS:      26673  HIT %:    99.5714  MISS %:   0.428603   MPKI: 0.26673
STLB LOAD TRANSLATION ACCESS:    1984249  HIT:    1957576  MISS:      26673  HIT %:    98.6558  MISS %:    1.34424   MPKI: 0.26673
STLB TRANSLATION FROM L1D PREFETCHER ACCESS:    4238993  HIT:    4238993  MISS:          0  HIT %:        100  MISS %:          0   MPKI: 0
STLB PREFETCH  REQUESTED:          0  ISSUED:          0  USEFUL:          0  USELESS:          0
STLB USEFUL LOAD PREFETCHES:          0 PREFETCH ISSUED TO LOWER LEVEL:          0  ACCURACY: -nan
STLB TIMELY PREFETCHES:          0 LATE PREFETCHES: 0 DROPPED PREFETCHES: 0
STLB PREFETCHES SAME FILL-ORIGIN LEVEL: 0 DIFFERENT FILL-ORIGIN LEVEL: 0
STLB AVERAGE MISS LATENCY: 201.901 cycles
STLB RQ	ACCESS:    7461082	FORWARD:          0	MERGED:    1237840	TO_CACHE:    6223242

STLB Hit, L1D data hit: 0
STLB Hit, L2C data hit: 0
STLB Hit, LLC data hit: 0
STLB Hit, LLC data miss: 0
STLB STLB hints to L2: 0
L1D TOTAL     ACCESS:   27320209  HIT:   17847070  MISS:    9473139  HIT %:    65.3255  MISS %:    34.6745   MPKI: 94.7314
L1D LOAD      ACCESS:   20810238  HIT:   16412814  MISS:    4397424  HIT %:    78.8689  MISS %:    21.1311   MPKI: 43.9742
L1D RFO       ACCESS:    1330119  HIT:     991468  MISS:     338651  HIT %:    74.5398  MISS %:    25.4602   MPKI: 3.38651
L1D PREFETCH  ACCESS:    5179852  HIT:     442788  MISS:    4737064  HIT %:    8.54828  MISS %:    91.4517   MPKI: 47.3706
AGUS PREFETCH L1 MISS: 0
L1D PREFETCH  REQUESTED:   10956012  ISSUED:   10953666  USEFUL:     689131  USELESS:    4047839
L1D USEFUL LOAD PREFETCHES:     689131 PREFETCH ISSUED TO LOWER LEVEL:    4833549  ACCURACY: 14.2572
L1D TIMELY PREFETCHES:     689131 LATE PREFETCHES: 96483 DROPPED PREFETCHES: 0
L1D PREFETCHES SAME FILL-ORIGIN LEVEL: 4833549 DIFFERENT FILL-ORIGIN LEVEL: 0
L1D AVERAGE MISS LATENCY: 108.134 cycles
L1D RQ	ACCESS:   37875089	FORWARD:          0	MERGED:   16950441	TO_CACHE:   20923253
L1D WQ	ACCESS:    1443842	FORWARD:       1395	MERGED:        513	TO_CACHE:    1443329
L1D PQ	ACCESS:    5476833	FORWARD:          0	MERGED:          0	TO_CACHE:    5476833

L1D UNIQUE REGIONS ACCESSED: 0
L1D REGIONS CONFLICTS: 0
L1D Cross Page Prefetch Requests: 0
L1D Same Page Prefetch Requests: 8076563
L1D ROI Sum of L1D PQ occupancy: 71203907
L1D PREFETCHES PUSHED FROM L2C: 0
L1I TOTAL     ACCESS:   12503215  HIT:   12503215  MISS:          0  HIT %:        100  MISS %:          0   MPKI: 0
L1I LOAD      ACCESS:   12503215  HIT:   12503215  MISS:          0  HIT %:        100  MISS %:          0   MPKI: 0
L1I PREFETCH  REQUESTED:          0  ISSUED:          0  USEFUL:          0  USELESS:          0
L1I USEFUL LOAD PREFETCHES:          0 PREFETCH ISSUED TO LOWER LEVEL:          0  ACCURACY: -nan
L1I TIMELY PREFETCHES:          0 LATE PREFETCHES: 0 DROPPED PREFETCHES: 0
L1I PREFETCHES SAME FILL-ORIGIN LEVEL: 0 DIFFERENT FILL-ORIGIN LEVEL: 0
L1I AVERAGE MISS LATENCY: -nan cycles
L1I RQ	ACCESS:   20186732	FORWARD:          0	MERGED:    7683516	TO_CACHE:   12503216

BTB TOTAL     ACCESS:   14384211  HIT:   14384089  MISS:        122  HIT %:    99.9992  MISS %: 0.000848152   MPKI: 0.00122
BTB BRANCH_DIRECT_JUMP	ACCESS:    4499227  HIT:    4499194  MISS:         33
BTB BRANCH_INDIRECT	ACCESS:          0  HIT:          0  MISS:          0
BTB BRANCH_CONDITIONAL	ACCESS:    9882952  HIT:    9882878  MISS:         74
BTB BRANCH_DIRECT_CALL	ACCESS:       1016  HIT:       1011  MISS:          5
BTB BRANCH_INDIRECT_CALL	ACCESS:          0  HIT:          0  MISS:          0
BTB BRANCH_RETURN	ACCESS:       1016  HIT:       1006  MISS:         10
BTB BRANCH_OTHER ACCESS:          0  HIT:          0  MISS:          0

L2C TOTAL     ACCESS:   10424055  HIT:    2417389  MISS:    8006666  HIT %:    23.1905  MISS %:    76.8095   MPKI: 80.0667
L2C LOAD      ACCESS:    4300938  HIT:     673683  MISS:    3627255  HIT %:    15.6636  MISS %:    84.3364   MPKI: 36.2725
L2C DATA LOAD MPKI: 36.2725
L2C INSTRUCTION LOAD MPKI: 0
L2C RFO       ACCESS:     338625  HIT:     211366  MISS:     127259  HIT %:    62.4189  MISS %:    37.5811   MPKI: 1.27259
L2C PREFETCH  ACCESS:    4833545  HIT:     604127  MISS:    4229418  HIT %:    12.4986  MISS %:    87.5014   MPKI: 42.2942
AGUS PREFETCH L1 MISS: 0
L2C DATA PREFETCH MPKI: 42.2942
L2C INSTRUCTION PREFETCH MPKI: 0
L2C WRITEBACK ACCESS:     919791  HIT:     916949  MISS:       2842  HIT %:     99.691  MISS %:   0.308983   MPKI: 0.02842
L2C LOAD TRANSLATION ACCESS:      31156  HIT:      11264  MISS:      19892  HIT %:    36.1535  MISS %:    63.8465   MPKI: 0.19892
L2C PREFETCH  REQUESTED:          0  ISSUED:          0  USEFUL:     100122  USELESS:    4129742
L2C USEFUL LOAD PREFETCHES:     100122 PREFETCH ISSUED TO LOWER LEVEL:    4229420  ACCURACY: 2.36727
L2C TIMELY PREFETCHES:     100122 LATE PREFETCHES: 0 DROPPED PREFETCHES: 0
L2C PREFETCHES SAME FILL-ORIGIN LEVEL: 0 DIFFERENT FILL-ORIGIN LEVEL: 0
L2C AVERAGE MISS LATENCY: 110.293 cycles
L2C RQ	ACCESS:    4670747	FORWARD:          0	MERGED:          0	TO_CACHE:    4670719
L2C WQ	ACCESS:     919791	FORWARD:         30	MERGED:          0	TO_CACHE:     919791
L2C PQ	ACCESS:    4833549	FORWARD:          0	MERGED:          0	TO_CACHE:    4833547

L2C Instructions Evicting Data 0
L2C Translations Evicting Data 19828
L2C Data Evicting Data 7964121
L2C Instructions Evicting Instructions 0
L2C Translations Evicting Instructions 0
L2C Data Evicting Instructions 0
L2C Instructions Evicting Translations 0
L2C Translations Evicting Translations 64
L2C Data Evicting Translations 19811
L2C Dense regions hint from L2: 0
PSCL5 TOTAL     ACCESS:      26673  HIT:      26673  MISS:          0  HIT %:        100  MISS %:          0   MPKI: 0
PSCL5 LOAD TRANSLATION ACCESS:      26673  HIT:      26673  MISS:          0  HIT %:        100  MISS %:          0   MPKI: 0
PSCL5 PREFETCH  REQUESTED:          0  ISSUED:          0  USEFUL:          0  USELESS:          0
PSCL5 USEFUL LOAD PREFETCHES:          0 PREFETCH ISSUED TO LOWER LEVEL:          0  ACCURACY: -nan
PSCL5 TIMELY PREFETCHES:          0 LATE PREFETCHES: 0 DROPPED PREFETCHES: 0
PSCL5 PREFETCHES SAME FILL-ORIGIN LEVEL: 0 DIFFERENT FILL-ORIGIN LEVEL: 0

PSCL4 TOTAL     ACCESS:      26673  HIT:      26673  MISS:          0  HIT %:        100  MISS %:          0   MPKI: 0
PSCL4 LOAD TRANSLATION ACCESS:      26673  HIT:      26673  MISS:          0  HIT %:        100  MISS %:          0   MPKI: 0
PSCL4 PREFETCH  REQUESTED:          0  ISSUED:          0  USEFUL:          0  USELESS:          0
PSCL4 USEFUL LOAD PREFETCHES:          0 PREFETCH ISSUED TO LOWER LEVEL:          0  ACCURACY: -nan
PSCL4 TIMELY PREFETCHES:          0 LATE PREFETCHES: 0 DROPPED PREFETCHES: 0
PSCL4 PREFETCHES SAME FILL-ORIGIN LEVEL: 0 DIFFERENT FILL-ORIGIN LEVEL: 0

PSCL3 TOTAL     ACCESS:      26673  HIT:      26673  MISS:          0  HIT %:        100  MISS %:          0   MPKI: 0
PSCL3 LOAD TRANSLATION ACCESS:      26673  HIT:      26673  MISS:          0  HIT %:        100  MISS %:          0   MPKI: 0
PSCL3 PREFETCH  REQUESTED:          0  ISSUED:          0  USEFUL:          0  USELESS:          0
PSCL3 USEFUL LOAD PREFETCHES:          0 PREFETCH ISSUED TO LOWER LEVEL:          0  ACCURACY: -nan
PSCL3 TIMELY PREFETCHES:          0 LATE PREFETCHES: 0 DROPPED PREFETCHES: 0
PSCL3 PREFETCHES SAME FILL-ORIGIN LEVEL: 0 DIFFERENT FILL-ORIGIN LEVEL: 0

PSCL2 TOTAL     ACCESS:      26673  HIT:      22188  MISS:       4485  HIT %:    83.1852  MISS %:    16.8148   MPKI: 0.04485
PSCL2 LOAD TRANSLATION ACCESS:      26673  HIT:      22188  MISS:       4485  HIT %:    83.1852  MISS %:    16.8148   MPKI: 0.04485
PSCL2 PREFETCH  REQUESTED:          0  ISSUED:          0  USEFUL:          0  USELESS:          0
PSCL2 USEFUL LOAD PREFETCHES:          0 PREFETCH ISSUED TO LOWER LEVEL:          0  ACCURACY: -nan
PSCL2 TIMELY PREFETCHES:          0 LATE PREFETCHES: 0 DROPPED PREFETCHES: 0
PSCL2 PREFETCHES SAME FILL-ORIGIN LEVEL: 0 DIFFERENT FILL-ORIGIN LEVEL: 0

LLC TOTAL     ACCESS:    8568355  HIT:    4264836  MISS:    4303519  HIT %:    49.7743  MISS %:    50.2257   MPKI: 43.0352
LLC LOAD      ACCESS:    3627255  HIT:    1869294  MISS:    1757961  HIT %:    51.5347  MISS %:    48.4653   MPKI: 17.5796
LLC RFO       ACCESS:     127257  HIT:      57384  MISS:      69873  HIT %:     45.093  MISS %:     54.907   MPKI: 0.69873
LLC PREFETCH  ACCESS:    4229418  HIT:    1776362  MISS:    2453056  HIT %:    42.0002  MISS %:    57.9998   MPKI: 24.5306
AGUS PREFETCH L1 MISS: 0
LLC WRITEBACK ACCESS:     564533  HIT:     558334  MISS:       6199  HIT %:    98.9019  MISS %:    1.09808   MPKI: 0.06199
LLC LOAD TRANSLATION ACCESS:      19892  HIT:       3462  MISS:      16430  HIT %:     17.404  MISS %:     82.596   MPKI: 0.1643
LLC PREFETCH  REQUESTED:          0  ISSUED:          0  USEFUL:     321165  USELESS:    2133100
LLC USEFUL LOAD PREFETCHES:     321165 PREFETCH ISSUED TO LOWER LEVEL:    2453057  ACCURACY: 13.0924
LLC TIMELY PREFETCHES:     321165 LATE PREFETCHES: 0 DROPPED PREFETCHES: 0
LLC PREFETCHES SAME FILL-ORIGIN LEVEL: 0 DIFFERENT FILL-ORIGIN LEVEL: 0
LLC AVERAGE MISS LATENCY: 149.269 cycles
LLC RQ	ACCESS:    3774406	FORWARD:          0	MERGED:          0	TO_CACHE:    3774404
LLC WQ	ACCESS:     564533	FORWARD:          3	MERGED:          0	TO_CACHE:     564533
LLC PQ	ACCESS:    4229420	FORWARD:          0	MERGED:          0	TO_CACHE:    4229419

LLC Dense regions hint to LLC: 0

RAW hits: 24644
Loads Generated: 37899736
Loads sent to L1D: 37875089
Stores Generated: 1443838
Stores sent to L1D: 1443842
Major fault: 0 Minor fault: 22021
Allocated PAGES: 22021

stream: 
stream:times selected: 9865264
stream:pref_filled: 5678396
stream:pref_useful: 251520
stream:pref_late: 96601
stream:misses: 1329774
stream:misses_by_poll: 0

CS: 
CS:times selected: 1796492
CS:pref_filled: 833195
CS:pref_useful: 788221
CS:pref_late: 18239
CS:misses: 94544
CS:misses_by_poll: 687

CPLX: 
CPLX:times selected: 8031818
CPLX:pref_filled: 190258
CPLX:pref_useful: 14020
CPLX:pref_late: 2632
CPLX:misses: 4765272
CPLX:misses_by_poll: 97

NL_L1: 
NL:times selected: 41135
NL:pref_filled: 35741
NL:pref_useful: 2278
NL:pref_late: 199
NL:misses: 36775
NL:misses_by_poll: 5

total selections: 19734709
total_filled: 4737064
total_useful: 689131
total_late: 120363
total_polluted: 789
total_misses_after_warmup: 4510438
conflicts: 45146

test: 2981562

DRAM Statistics
 CHANNEL 0
 RQ ROW_BUFFER_HIT:    1879174  ROW_BUFFER_MISS:    2418090
 DBUS_CONGESTED:       4524
 WQ ROW_BUFFER_HIT:     139260  ROW_BUFFER_MISS:     343633  FULL:          0

 AVG_CONGESTED_CYCLE: 4
 All warmup complete: 2
Channel 0 Bank busy for read cycles: 0
Channel 0 Bank busy for write cycles: 0
Channel 0
Rank 0
0banks busy for read cycles: 34931612
0banks busy for write cycles: 155364
1banks busy for read cycles: 72778566
1banks busy for write cycles: 25740313
2banks busy for read cycles: 49023921
2banks busy for write cycles: 16420486
3banks busy for read cycles: 31979109
3banks busy for write cycles: 9263135
4banks busy for read cycles: 21123302
4banks busy for write cycles: 4654011
5banks busy for read cycles: 11460693
5banks busy for write cycles: 2078302
6banks busy for read cycles: 5034782
6banks busy for write cycles: 834391
7banks busy for read cycles: 1658071
7banks busy for write cycles: 309955
8banks busy for read cycles: 803446
8banks busy for write cycles: 205720

CPU 0 Branch Prediction Accuracy: 96.822% MPKI: 4.71695 Average ROB Occupancy at Mispredict: 120.685
Branch types
NOT_BRANCH: 85157281 85.1573%
BRANCH_DIRECT_JUMP: 4499227 4.49923%
BRANCH_INDIRECT: 0 0%
BRANCH_CONDITIONAL: 10341465 10.3415%
BRANCH_DIRECT_CALL: 1016 0.001016%
BRANCH_INDIRECT_CALL: 0 0%
BRANCH_RETURN: 1016 0.001016%
BRANCH_OTHER: 0 0%

DRAM PAGES: 1048576
Allocated PAGES: 22021
