
*** ChampSim Multicore Out-of-Order Simulator ***

Warmup Instructions: 50000000
Simulation Instructions: 100000000
Number of CPUs: 1
LLC sets: 2048
LLC ways: 16
Off-chip DRAM Size: 4096 MB Channels: 1 Width: 64-bit Data Rate: 6400 MT/s
CPU 0 runs ./traces/GAP/sssp-14.trace.gz
.gz
CPU 0 Bimodal branch predictor
BTB has LRU replacement policy
ITLB has LRU replacement policy
DTLB has LRU replacement policy
STLB has LRU replacement policy
L1I has LRU replacement policy
L1D has LRU replacement policy
L2C has LRU replacement policy
LLC has LRU replacement policy
Heartbeat CPU 0 instructions: 10000000 cycles: 3246966 heartbeat IPC: 3.0798 cumulative IPC: 3.0798 (Simulation time: 0 hr 0 min 27 sec) 
Heartbeat CPU 0 instructions: 20000000 cycles: 6500982 heartbeat IPC: 3.07313 cumulative IPC: 3.07646 (Simulation time: 0 hr 0 min 55 sec) 
Heartbeat CPU 0 instructions: 30000001 cycles: 9793296 heartbeat IPC: 3.03738 cumulative IPC: 3.06332 (Simulation time: 0 hr 1 min 23 sec) 
Heartbeat CPU 0 instructions: 40000000 cycles: 13100352 heartbeat IPC: 3.02384 cumulative IPC: 3.05335 (Simulation time: 0 hr 1 min 50 sec) 
Heartbeat CPU 0 instructions: 50000000 cycles: 16420960 heartbeat IPC: 3.0115 cumulative IPC: 3.04489 (Simulation time: 0 hr 2 min 18 sec) 

Warmup complete CPU 0 instructions: 50000004 cycles: 16420961 (Simulation time: 0 hr 2 min 18 sec) 

Heartbeat CPU 0 instructions: 60000000 cycles: 54825117 heartbeat IPC: 0.260388 cumulative IPC: 0.260388 (Simulation time: 0 hr 3 min 5 sec) 
Heartbeat CPU 0 instructions: 70000001 cycles: 91640366 heartbeat IPC: 0.271627 cumulative IPC: 0.265889 (Simulation time: 0 hr 3 min 51 sec) 
Heartbeat CPU 0 instructions: 80000000 cycles: 127173241 heartbeat IPC: 0.281429 cumulative IPC: 0.270875 (Simulation time: 0 hr 4 min 39 sec) 
Heartbeat CPU 0 instructions: 90000003 cycles: 161793878 heartbeat IPC: 0.288845 cumulative IPC: 0.275154 (Simulation time: 0 hr 5 min 26 sec) 
Heartbeat CPU 0 instructions: 100000000 cycles: 195888375 heartbeat IPC: 0.293302 cumulative IPC: 0.278602 (Simulation time: 0 hr 6 min 14 sec) 
Heartbeat CPU 0 instructions: 110000000 cycles: 229824932 heartbeat IPC: 0.294667 cumulative IPC: 0.281157 (Simulation time: 0 hr 7 min 1 sec) 
Heartbeat CPU 0 instructions: 120000000 cycles: 263256140 heartbeat IPC: 0.299122 cumulative IPC: 0.28359 (Simulation time: 0 hr 7 min 49 sec) 
Heartbeat CPU 0 instructions: 130000003 cycles: 296281994 heartbeat IPC: 0.302793 cumulative IPC: 0.285856 (Simulation time: 0 hr 8 min 37 sec) 
Heartbeat CPU 0 instructions: 140000000 cycles: 329176990 heartbeat IPC: 0.303998 cumulative IPC: 0.287764 (Simulation time: 0 hr 9 min 25 sec) 
Heartbeat CPU 0 instructions: 150000000 cycles: 361924793 heartbeat IPC: 0.305364 cumulative IPC: 0.289432 (Simulation time: 0 hr 10 min 14 sec) 
Finished CPU 0 instructions: 100000000 cycles: 345503833 cumulative IPC: 0.289432 (Simulation time: 0 hr 10 min 14 sec) 

ChampSim completed all CPUs

Region of Interest Statistics

CPU 0 cumulative IPC: 0.289432 instructions: 100000000 cycles: 345503833
ITLB TOTAL     ACCESS:   12187484  HIT:   12187484  MISS:          0  HIT %:        100  MISS %:          0   MPKI: 0
ITLB LOAD TRANSLATION ACCESS:   12187484  HIT:   12187484  MISS:          0  HIT %:        100  MISS %:          0   MPKI: 0
ITLB PREFETCH  REQUESTED:          0  ISSUED:          0  USEFUL:          0  USELESS:          0
ITLB USEFUL LOAD PREFETCHES:          0 PREFETCH ISSUED TO LOWER LEVEL:          0  ACCURACY: -nan
ITLB TIMELY PREFETCHES:          0 LATE PREFETCHES: 0 DROPPED PREFETCHES: 0
ITLB PREFETCHES SAME FILL-ORIGIN LEVEL: 0 DIFFERENT FILL-ORIGIN LEVEL: 0
ITLB AVERAGE MISS LATENCY: -nan cycles
ITLB RQ	ACCESS:   12607822	FORWARD:          0	MERGED:     420339	TO_CACHE:   12187483

DTLB TOTAL     ACCESS:   20871604  HIT:   18829588  MISS:    2042016  HIT %:    90.2163  MISS %:     9.7837   MPKI: 20.4202
DTLB LOAD TRANSLATION ACCESS:   20871604  HIT:   18829588  MISS:    2042016  HIT %:    90.2163  MISS %:     9.7837   MPKI: 20.4202
DTLB PREFETCH  REQUESTED:          0  ISSUED:          0  USEFUL:          0  USELESS:          0
DTLB USEFUL LOAD PREFETCHES:          0 PREFETCH ISSUED TO LOWER LEVEL:          0  ACCURACY: -nan
DTLB TIMELY PREFETCHES:          0 LATE PREFETCHES: 0 DROPPED PREFETCHES: 0
DTLB PREFETCHES SAME FILL-ORIGIN LEVEL: 0 DIFFERENT FILL-ORIGIN LEVEL: 0
DTLB AVERAGE MISS LATENCY: 11.7024 cycles
DTLB RQ	ACCESS:   22461356	FORWARD:          0	MERGED:    1534002	TO_CACHE:   20927354

STLB TOTAL     ACCESS:    2042016  HIT:    2014486  MISS:      27530  HIT %:    98.6518  MISS %:    1.34818   MPKI: 0.2753
STLB LOAD TRANSLATION ACCESS:    2042016  HIT:    2014486  MISS:      27530  HIT %:    98.6518  MISS %:    1.34818   MPKI: 0.2753
STLB PREFETCH  REQUESTED:          0  ISSUED:          0  USEFUL:          0  USELESS:          0
STLB USEFUL LOAD PREFETCHES:          0 PREFETCH ISSUED TO LOWER LEVEL:          0  ACCURACY: -nan
STLB TIMELY PREFETCHES:          0 LATE PREFETCHES: 0 DROPPED PREFETCHES: 0
STLB PREFETCHES SAME FILL-ORIGIN LEVEL: 0 DIFFERENT FILL-ORIGIN LEVEL: 0
STLB AVERAGE MISS LATENCY: 179.991 cycles
STLB RQ	ACCESS:    2042016	FORWARD:          0	MERGED:          0	TO_CACHE:    2042016

STLB Hit, L1D data hit: 0
STLB Hit, L2C data hit: 0
STLB Hit, LLC data hit: 0
STLB Hit, LLC data miss: 0
STLB STLB hints to L2: 0
L1D TOTAL     ACCESS:   20347544  HIT:   14994842  MISS:    5352702  HIT %:    73.6936  MISS %:    26.3064   MPKI: 53.527
L1D LOAD      ACCESS:   19039969  HIT:   13974896  MISS:    5065073  HIT %:    73.3977  MISS %:    26.6023   MPKI: 50.6507
L1D RFO       ACCESS:    1307575  HIT:    1019946  MISS:     287629  HIT %:    78.0029  MISS %:    21.9971   MPKI: 2.87629
L1D PREFETCH  REQUESTED:          0  ISSUED:          0  USEFUL:          0  USELESS:          0
L1D USEFUL LOAD PREFETCHES:          0 PREFETCH ISSUED TO LOWER LEVEL:          0  ACCURACY: -nan
L1D TIMELY PREFETCHES:          0 LATE PREFETCHES: 0 DROPPED PREFETCHES: 0
L1D PREFETCHES SAME FILL-ORIGIN LEVEL: 0 DIFFERENT FILL-ORIGIN LEVEL: 0
L1D AVERAGE MISS LATENCY: 101.837 cycles
L1D RQ	ACCESS:   37918339	FORWARD:          0	MERGED:   16873117	TO_CACHE:   21043193
L1D WQ	ACCESS:    1418658	FORWARD:       2029	MERGED:        495	TO_CACHE:    1418163

L1D UNIQUE REGIONS ACCESSED: 0
L1D REGIONS CONFLICTS: 0
L1D Cross Page Prefetch Requests: 0
L1D Same Page Prefetch Requests: 0
L1D ROI Sum of L1D PQ occupancy: 0
L1D PREFETCHES PUSHED FROM L2C: 0
L1I TOTAL     ACCESS:   12607823  HIT:   12607823  MISS:          0  HIT %:        100  MISS %:          0   MPKI: 0
L1I LOAD      ACCESS:   12607823  HIT:   12607823  MISS:          0  HIT %:        100  MISS %:          0   MPKI: 0
L1I PREFETCH  REQUESTED:          0  ISSUED:          0  USEFUL:          0  USELESS:          0
L1I USEFUL LOAD PREFETCHES:          0 PREFETCH ISSUED TO LOWER LEVEL:          0  ACCURACY: -nan
L1I TIMELY PREFETCHES:          0 LATE PREFETCHES: 0 DROPPED PREFETCHES: 0
L1I PREFETCHES SAME FILL-ORIGIN LEVEL: 0 DIFFERENT FILL-ORIGIN LEVEL: 0
L1I AVERAGE MISS LATENCY: -nan cycles
L1I RQ	ACCESS:   20425726	FORWARD:          0	MERGED:    7817904	TO_CACHE:   12607822

BTB TOTAL     ACCESS:   14400412  HIT:   14400265  MISS:        147  HIT %:     99.999  MISS %:  0.0010208   MPKI: 0.00147
BTB BRANCH_DIRECT_JUMP	ACCESS:    4508499  HIT:    4508458  MISS:         41
BTB BRANCH_INDIRECT	ACCESS:          0  HIT:          0  MISS:          0
BTB BRANCH_CONDITIONAL	ACCESS:    9890017  HIT:    9889935  MISS:         82
BTB BRANCH_DIRECT_CALL	ACCESS:        948  HIT:        938  MISS:         10
BTB BRANCH_INDIRECT_CALL	ACCESS:          0  HIT:          0  MISS:          0
BTB BRANCH_RETURN	ACCESS:        948  HIT:        934  MISS:         14
BTB BRANCH_OTHER ACCESS:          0  HIT:          0  MISS:          0

L2C TOTAL     ACCESS:    6217078  HIT:    2079184  MISS:    4137894  HIT %:    33.4431  MISS %:    66.5569   MPKI: 41.3789
L2C LOAD      ACCESS:    5065073  HIT:    1045670  MISS:    4019403  HIT %:    20.6447  MISS %:    79.3553   MPKI: 40.194
L2C DATA LOAD MPKI: 40.194
L2C INSTRUCTION LOAD MPKI: 0
L2C RFO       ACCESS:     287629  HIT:     190017  MISS:      97612  HIT %:    66.0632  MISS %:    33.9368   MPKI: 0.97612
L2C WRITEBACK ACCESS:     832316  HIT:     831207  MISS:       1109  HIT %:    99.8668  MISS %:   0.133243   MPKI: 0.01109
L2C LOAD TRANSLATION ACCESS:      32060  HIT:      12290  MISS:      19770  HIT %:    38.3344  MISS %:    61.6656   MPKI: 0.1977
L2C PREFETCH  REQUESTED:          0  ISSUED:          0  USEFUL:          0  USELESS:          0
L2C USEFUL LOAD PREFETCHES:          0 PREFETCH ISSUED TO LOWER LEVEL:          0  ACCURACY: -nan
L2C TIMELY PREFETCHES:          0 LATE PREFETCHES: 0 DROPPED PREFETCHES: 0
L2C PREFETCHES SAME FILL-ORIGIN LEVEL: 0 DIFFERENT FILL-ORIGIN LEVEL: 0
L2C AVERAGE MISS LATENCY: 112.669 cycles
L2C RQ	ACCESS:    5384762	FORWARD:          0	MERGED:          0	TO_CACHE:    5384762
L2C WQ	ACCESS:     832316	FORWARD:          0	MERGED:          0	TO_CACHE:     832316

L2C Instructions Evicting Data 0
L2C Translations Evicting Data 19707
L2C Data Evicting Data 4097310
L2C Instructions Evicting Instructions 0
L2C Translations Evicting Instructions 0
L2C Data Evicting Instructions 0
L2C Instructions Evicting Translations 0
L2C Translations Evicting Translations 63
L2C Data Evicting Translations 19705
L2C Dense regions hint from L2: 0
PSCL5 TOTAL     ACCESS:      27530  HIT:      27530  MISS:          0  HIT %:        100  MISS %:          0   MPKI: 0
PSCL5 LOAD TRANSLATION ACCESS:      27530  HIT:      27530  MISS:          0  HIT %:        100  MISS %:          0   MPKI: 0
PSCL5 PREFETCH  REQUESTED:          0  ISSUED:          0  USEFUL:          0  USELESS:          0
PSCL5 USEFUL LOAD PREFETCHES:          0 PREFETCH ISSUED TO LOWER LEVEL:          0  ACCURACY: -nan
PSCL5 TIMELY PREFETCHES:          0 LATE PREFETCHES: 0 DROPPED PREFETCHES: 0
PSCL5 PREFETCHES SAME FILL-ORIGIN LEVEL: 0 DIFFERENT FILL-ORIGIN LEVEL: 0

PSCL4 TOTAL     ACCESS:      27530  HIT:      27530  MISS:          0  HIT %:        100  MISS %:          0   MPKI: 0
PSCL4 LOAD TRANSLATION ACCESS:      27530  HIT:      27530  MISS:          0  HIT %:        100  MISS %:          0   MPKI: 0
PSCL4 PREFETCH  REQUESTED:          0  ISSUED:          0  USEFUL:          0  USELESS:          0
PSCL4 USEFUL LOAD PREFETCHES:          0 PREFETCH ISSUED TO LOWER LEVEL:          0  ACCURACY: -nan
PSCL4 TIMELY PREFETCHES:          0 LATE PREFETCHES: 0 DROPPED PREFETCHES: 0
PSCL4 PREFETCHES SAME FILL-ORIGIN LEVEL: 0 DIFFERENT FILL-ORIGIN LEVEL: 0

PSCL3 TOTAL     ACCESS:      27530  HIT:      27530  MISS:          0  HIT %:        100  MISS %:          0   MPKI: 0
PSCL3 LOAD TRANSLATION ACCESS:      27530  HIT:      27530  MISS:          0  HIT %:        100  MISS %:          0   MPKI: 0
PSCL3 PREFETCH  REQUESTED:          0  ISSUED:          0  USEFUL:          0  USELESS:          0
PSCL3 USEFUL LOAD PREFETCHES:          0 PREFETCH ISSUED TO LOWER LEVEL:          0  ACCURACY: -nan
PSCL3 TIMELY PREFETCHES:          0 LATE PREFETCHES: 0 DROPPED PREFETCHES: 0
PSCL3 PREFETCHES SAME FILL-ORIGIN LEVEL: 0 DIFFERENT FILL-ORIGIN LEVEL: 0

PSCL2 TOTAL     ACCESS:      27530  HIT:      22998  MISS:       4532  HIT %:     83.538  MISS %:     16.462   MPKI: 0.04532
PSCL2 LOAD TRANSLATION ACCESS:      27530  HIT:      22998  MISS:       4532  HIT %:     83.538  MISS %:     16.462   MPKI: 0.04532
PSCL2 PREFETCH  REQUESTED:          0  ISSUED:          0  USEFUL:          0  USELESS:          0
PSCL2 USEFUL LOAD PREFETCHES:          0 PREFETCH ISSUED TO LOWER LEVEL:          0  ACCURACY: -nan
PSCL2 TIMELY PREFETCHES:          0 LATE PREFETCHES: 0 DROPPED PREFETCHES: 0
PSCL2 PREFETCHES SAME FILL-ORIGIN LEVEL: 0 DIFFERENT FILL-ORIGIN LEVEL: 0

LLC TOTAL     ACCESS:    4656090  HIT:    2452574  MISS:    2203516  HIT %:    52.6745  MISS %:    47.3255   MPKI: 22.0352
LLC LOAD      ACCESS:    4019403  HIT:    1894683  MISS:    2124720  HIT %:    47.1384  MISS %:    52.8616   MPKI: 21.2472
LLC RFO       ACCESS:      97612  HIT:      36221  MISS:      61391  HIT %:    37.1071  MISS %:    62.8929   MPKI: 0.61391
LLC WRITEBACK ACCESS:     519305  HIT:     515913  MISS:       3392  HIT %:    99.3468  MISS %:   0.653181   MPKI: 0.03392
LLC LOAD TRANSLATION ACCESS:      19770  HIT:       5757  MISS:      14013  HIT %:    29.1199  MISS %:    70.8801   MPKI: 0.14013
LLC PREFETCH  REQUESTED:          0  ISSUED:          0  USEFUL:          0  USELESS:          0
LLC USEFUL LOAD PREFETCHES:          0 PREFETCH ISSUED TO LOWER LEVEL:          0  ACCURACY: -nan
LLC TIMELY PREFETCHES:          0 LATE PREFETCHES: 0 DROPPED PREFETCHES: 0
LLC PREFETCHES SAME FILL-ORIGIN LEVEL: 0 DIFFERENT FILL-ORIGIN LEVEL: 0
LLC AVERAGE MISS LATENCY: 155.152 cycles
LLC RQ	ACCESS:    4136785	FORWARD:          0	MERGED:          0	TO_CACHE:    4136785
LLC WQ	ACCESS:     519305	FORWARD:          0	MERGED:          0	TO_CACHE:     519305

LLC Dense regions hint to LLC: 0

RAW hits: 25509
Loads Generated: 37943849
Loads sent to L1D: 37918339
Stores Generated: 1418652
Stores sent to L1D: 1418658
Major fault: 0 Minor fault: 22130
Allocated PAGES: 22130

DRAM Statistics
 CHANNEL 0
 RQ ROW_BUFFER_HIT:     544914  ROW_BUFFER_MISS:    1655195
 DBUS_CONGESTED:        788
 WQ ROW_BUFFER_HIT:     132709  ROW_BUFFER_MISS:     313848  FULL:          0

 AVG_CONGESTED_CYCLE: 4
 All warmup complete: 2
Channel 0 Bank busy for read cycles: 0
Channel 0 Bank busy for write cycles: 0
Channel 0
Rank 0
0banks busy for read cycles: 86308330
0banks busy for write cycles: 245630
1banks busy for read cycles: 128856708
1banks busy for write cycles: 45628286
2banks busy for read cycles: 44683284
2banks busy for write cycles: 16266184
3banks busy for read cycles: 12574454
3banks busy for write cycles: 4904991
4banks busy for read cycles: 2574004
4banks busy for write cycles: 1272054
5banks busy for read cycles: 404529
5banks busy for write cycles: 301340
6banks busy for read cycles: 175118
6banks busy for write cycles: 90900
7banks busy for read cycles: 192043
7banks busy for write cycles: 68913
8banks busy for read cycles: 632886
8banks busy for write cycles: 324180

CPU 0 Branch Prediction Accuracy: 96.8958% MPKI: 4.60791 Average ROB Occupancy at Mispredict: 122.967
Branch types
NOT_BRANCH: 85155829 85.1558%
BRANCH_DIRECT_JUMP: 4508499 4.5085%
BRANCH_INDIRECT: 0 0%
BRANCH_CONDITIONAL: 10333630 10.3336%
BRANCH_DIRECT_CALL: 948 0.000948%
BRANCH_INDIRECT_CALL: 0 0%
BRANCH_RETURN: 948 0.000948%
BRANCH_OTHER: 0 0%

DRAM PAGES: 1048576
Allocated PAGES: 22130
