
*** ChampSim Multicore Out-of-Order Simulator ***

Warmup Instructions: 50000000
Simulation Instructions: 50000000
Number of CPUs: 1
LLC sets: 2048
LLC ways: 16
Off-chip DRAM Size: 4096 MB Channels: 1 Width: 64-bit Data Rate: 6400 MT/s
CPU 0 runs ./traces/SPEC-CPU2017/429.mcf-184B.champsimtrace.xz
.xz
CPU 0 Bimodal branch predictor
BTB has LRU replacement policy
ITLB has LRU replacement policy
DTLB has LRU replacement policy
STLB has LRU replacement policy
L1I has LRU replacement policy
L1D has LRU replacement policy
L2C has LRU replacement policy
LLC has LRU replacement policy
Heartbeat CPU 0 instructions: 10000003 cycles: 3796211 heartbeat IPC: 2.63421 cumulative IPC: 2.63421 (Simulation time: 0 hr 8 min 22 sec) 
Heartbeat CPU 0 instructions: 20000000 cycles: 7563391 heartbeat IPC: 2.6545 cumulative IPC: 2.64432 (Simulation time: 0 hr 16 min 47 sec) 
Heartbeat CPU 0 instructions: 30000001 cycles: 11318236 heartbeat IPC: 2.66323 cumulative IPC: 2.65059 (Simulation time: 0 hr 23 min 13 sec) 
Heartbeat CPU 0 instructions: 40000000 cycles: 15067752 heartbeat IPC: 2.66701 cumulative IPC: 2.65468 (Simulation time: 0 hr 29 min 21 sec) 
Heartbeat CPU 0 instructions: 50000000 cycles: 18826571 heartbeat IPC: 2.66041 cumulative IPC: 2.65582 (Simulation time: 0 hr 35 min 36 sec) 

Warmup complete CPU 0 instructions: 50000004 cycles: 18826572 (Simulation time: 0 hr 35 min 36 sec) 

Heartbeat CPU 0 instructions: 60000000 cycles: 131586696 heartbeat IPC: 0.0886838 cumulative IPC: 0.0886838 (Simulation time: 0 hr 40 min 58 sec) 
Heartbeat CPU 0 instructions: 70000000 cycles: 247069711 heartbeat IPC: 0.0865928 cumulative IPC: 0.0876258 (Simulation time: 0 hr 45 min 54 sec) 
Heartbeat CPU 0 instructions: 80000000 cycles: 361197485 heartbeat IPC: 0.0876211 cumulative IPC: 0.0876243 (Simulation time: 0 hr 51 min 4 sec) 
Heartbeat CPU 0 instructions: 90000000 cycles: 461409124 heartbeat IPC: 0.0997888 cumulative IPC: 0.0903786 (Simulation time: 0 hr 55 min 36 sec) 
Heartbeat CPU 0 instructions: 100000000 cycles: 565236260 heartbeat IPC: 0.0963139 cumulative IPC: 0.0915064 (Simulation time: 1 hr 0 min 15 sec) 
Finished CPU 0 instructions: 50000000 cycles: 546409698 cumulative IPC: 0.0915064 (Simulation time: 1 hr 0 min 15 sec) 

ChampSim completed all CPUs

Region of Interest Statistics

CPU 0 cumulative IPC: 0.0915064 instructions: 50000000 cycles: 546409698
ITLB TOTAL     ACCESS:    9252807  HIT:    9252807  MISS:          0  HIT %:        100  MISS %:          0   MPKI: 0
ITLB LOAD TRANSLATION ACCESS:    9252807  HIT:    9252807  MISS:          0  HIT %:        100  MISS %:          0   MPKI: 0
ITLB PREFETCH  REQUESTED:          0  ISSUED:          0  USEFUL:          0  USELESS:          0
ITLB USEFUL LOAD PREFETCHES:          0 PREFETCH ISSUED TO LOWER LEVEL:          0  ACCURACY: -nan
ITLB TIMELY PREFETCHES:          0 LATE PREFETCHES: 0 DROPPED PREFETCHES: 0
ITLB PREFETCHES SAME FILL-ORIGIN LEVEL: 0 DIFFERENT FILL-ORIGIN LEVEL: 0
ITLB AVERAGE MISS LATENCY: -nan cycles
ITLB RQ	ACCESS:   10144277	FORWARD:          0	MERGED:     891471	TO_CACHE:    9252806

DTLB TOTAL     ACCESS:   11087316  HIT:    5404056  MISS:    5683260  HIT %:    48.7409  MISS %:    51.2591   MPKI: 113.665
DTLB LOAD TRANSLATION ACCESS:   11087316  HIT:    5404056  MISS:    5683260  HIT %:    48.7409  MISS %:    51.2591   MPKI: 113.665
DTLB PREFETCH  REQUESTED:          0  ISSUED:          0  USEFUL:          0  USELESS:          0
DTLB USEFUL LOAD PREFETCHES:          0 PREFETCH ISSUED TO LOWER LEVEL:          0  ACCURACY: -nan
DTLB TIMELY PREFETCHES:          0 LATE PREFETCHES: 0 DROPPED PREFETCHES: 0
DTLB PREFETCHES SAME FILL-ORIGIN LEVEL: 0 DIFFERENT FILL-ORIGIN LEVEL: 0
DTLB AVERAGE MISS LATENCY: 14.6281 cycles
DTLB RQ	ACCESS:   11973929	FORWARD:          0	MERGED:     875400	TO_CACHE:   11098529

STLB TOTAL     ACCESS:   15516421  HIT:   14888303  MISS:     628118  HIT %:    95.9519  MISS %:    4.04809   MPKI: 12.5624
STLB LOAD TRANSLATION ACCESS:    5683260  HIT:    5482121  MISS:     201139  HIT %:    96.4609  MISS %:    3.53915   MPKI: 4.02278
STLB TRANSLATION FROM L1D PREFETCHER ACCESS:    9833161  HIT:    9406182  MISS:     426979  HIT %:    95.6578  MISS %:    4.34224   MPKI: 8.53958
STLB PREFETCH  REQUESTED:          0  ISSUED:          0  USEFUL:     321269  USELESS:     105680
STLB USEFUL LOAD PREFETCHES:     321269 PREFETCH ISSUED TO LOWER LEVEL:          0  ACCURACY: inf
STLB TIMELY PREFETCHES:     321269 LATE PREFETCHES: 1535 DROPPED PREFETCHES: 0
STLB PREFETCHES SAME FILL-ORIGIN LEVEL: 0 DIFFERENT FILL-ORIGIN LEVEL: 0
STLB AVERAGE MISS LATENCY: 229.549 cycles
STLB RQ	ACCESS:   17356771	FORWARD:          0	MERGED:    1837659	TO_CACHE:   15519112

STLB Hit, L1D data hit: 0
STLB Hit, L2C data hit: 0
STLB Hit, LLC data hit: 0
STLB Hit, LLC data miss: 0
STLB STLB hints to L2: 0
L1D TOTAL     ACCESS:   23478126  HIT:    6547907  MISS:   16930219  HIT %:    27.8894  MISS %:    72.1106   MPKI: 338.604
L1D LOAD      ACCESS:   10748990  HIT:    4945516  MISS:    5803474  HIT %:    46.0091  MISS %:    53.9909   MPKI: 116.069
L1D RFO       ACCESS:    1199233  HIT:    1149057  MISS:      50176  HIT %:     95.816  MISS %:    4.18401   MPKI: 1.00352
L1D PREFETCH  ACCESS:   11529903  HIT:     453334  MISS:   11076569  HIT %:    3.93181  MISS %:    96.0682   MPKI: 221.531
AGUS PREFETCH L1 MISS: 0
L1D PREFETCH  REQUESTED:   23826590  ISSUED:   23367591  USEFUL:     837812  USELESS:   10238696
L1D USEFUL LOAD PREFETCHES:     837812 PREFETCH ISSUED TO LOWER LEVEL:   11114055  ACCURACY: 7.53831
L1D TIMELY PREFETCHES:     837812 LATE PREFETCHES: 35800 DROPPED PREFETCHES: 0
L1D PREFETCHES SAME FILL-ORIGIN LEVEL: 11114055 DIFFERENT FILL-ORIGIN LEVEL: 0
L1D AVERAGE MISS LATENCY: 103.135 cycles
L1D RQ	ACCESS:   15999173	FORWARD:          0	MERGED:    5224232	TO_CACHE:   10768950
L1D WQ	ACCESS:    1282255	FORWARD:       6020	MERGED:      77276	TO_CACHE:    1204979
L1D PQ	ACCESS:   11694077	FORWARD:          0	MERGED:      20534	TO_CACHE:   11673514

L1D UNIQUE REGIONS ACCESSED: 0
L1D REGIONS CONFLICTS: 0
L1D Cross Page Prefetch Requests: 7501839
L1D Same Page Prefetch Requests: 14540187
L1D ROI Sum of L1D PQ occupancy: 361243886
L1D PREFETCHES PUSHED FROM L2C: 0
L1I TOTAL     ACCESS:   10144278  HIT:   10144278  MISS:          0  HIT %:        100  MISS %:          0   MPKI: 0
L1I LOAD      ACCESS:   10144278  HIT:   10144278  MISS:          0  HIT %:        100  MISS %:          0   MPKI: 0
L1I PREFETCH  REQUESTED:          0  ISSUED:          0  USEFUL:          0  USELESS:          0
L1I USEFUL LOAD PREFETCHES:          0 PREFETCH ISSUED TO LOWER LEVEL:          0  ACCURACY: -nan
L1I TIMELY PREFETCHES:          0 LATE PREFETCHES: 0 DROPPED PREFETCHES: 0
L1I PREFETCHES SAME FILL-ORIGIN LEVEL: 0 DIFFERENT FILL-ORIGIN LEVEL: 0
L1I AVERAGE MISS LATENCY: -nan cycles
L1I RQ	ACCESS:   13992189	FORWARD:          0	MERGED:    3847912	TO_CACHE:   10144277

BTB TOTAL     ACCESS:   10746617  HIT:   10743468  MISS:       3149  HIT %:    99.9707  MISS %:  0.0293022   MPKI: 0.06298
BTB BRANCH_DIRECT_JUMP	ACCESS:     328173  HIT:     328155  MISS:         18
BTB BRANCH_INDIRECT	ACCESS:          0  HIT:          0  MISS:          0
BTB BRANCH_CONDITIONAL	ACCESS:   10354958  HIT:   10354903  MISS:         55
BTB BRANCH_DIRECT_CALL	ACCESS:      31743  HIT:      31737  MISS:          6
BTB BRANCH_INDIRECT_CALL	ACCESS:          0  HIT:          0  MISS:          0
BTB BRANCH_RETURN	ACCESS:      31743  HIT:      28673  MISS:       3070
BTB BRANCH_OTHER ACCESS:          0  HIT:          0  MISS:          0

L2C TOTAL     ACCESS:   18375741  HIT:    6805610  MISS:   11570131  HIT %:    37.0358  MISS %:    62.9642   MPKI: 231.403
L2C LOAD      ACCESS:    5767666  HIT:    2175479  MISS:    3592187  HIT %:    37.7185  MISS %:    62.2815   MPKI: 71.8437
L2C DATA LOAD MPKI: 71.8437
L2C INSTRUCTION LOAD MPKI: 0
L2C RFO       ACCESS:      48475  HIT:      17307  MISS:      31168  HIT %:    35.7029  MISS %:    64.2971   MPKI: 0.62336
L2C PREFETCH  ACCESS:   11114067  HIT:    3514306  MISS:    7599761  HIT %:    31.6203  MISS %:    68.3797   MPKI: 151.995
AGUS PREFETCH L1 MISS: 0
L2C DATA PREFETCH MPKI: 151.995
L2C INSTRUCTION PREFETCH MPKI: 0
L2C WRITEBACK ACCESS:     623512  HIT:     623510  MISS:          2  HIT %:    99.9997  MISS %: 0.000320764   MPKI: 4e-05
L2C LOAD TRANSLATION ACCESS:     266833  HIT:     123550  MISS:     143283  HIT %:    46.3024  MISS %:    53.6976   MPKI: 2.86566
L2C TRANSLATION FROM L1D PREFETCHER ACCESS:     555188  HIT:     351458  MISS:     203730  HIT %:    63.3043  MISS %:    36.6957   MPKI: 4.0746
L2C PREFETCH  REQUESTED:          0  ISSUED:          0  USEFUL:    1158024  USELESS:    6644944
L2C USEFUL LOAD PREFETCHES:    1158024 PREFETCH ISSUED TO LOWER LEVEL:    7599760  ACCURACY: 15.2376
L2C TIMELY PREFETCHES:    1158024 LATE PREFETCHES: 0 DROPPED PREFETCHES: 0
L2C PREFETCHES SAME FILL-ORIGIN LEVEL: 0 DIFFERENT FILL-ORIGIN LEVEL: 0
L2C AVERAGE MISS LATENCY: 132.67 cycles
L2C RQ	ACCESS:    6638169	FORWARD:          0	MERGED:          0	TO_CACHE:    6638161
L2C WQ	ACCESS:     623512	FORWARD:         10	MERGED:          0	TO_CACHE:     623512
L2C PQ	ACCESS:   11114055	FORWARD:          0	MERGED:          0	TO_CACHE:   11114053

L2C Instructions Evicting Data 0
L2C Translations Evicting Data 326100
L2C Data Evicting Data 10897033
L2C Instructions Evicting Instructions 0
L2C Translations Evicting Instructions 0
L2C Data Evicting Instructions 0
L2C Instructions Evicting Translations 0
L2C Translations Evicting Translations 20913
L2C Data Evicting Translations 326083
L2C Dense regions hint from L2: 0
PSCL5 TOTAL     ACCESS:     628118  HIT:     628118  MISS:          0  HIT %:        100  MISS %:          0   MPKI: 0
PSCL5 LOAD TRANSLATION ACCESS:     199604  HIT:     199604  MISS:          0  HIT %:        100  MISS %:          0   MPKI: 0
PSCL5 TRANSLATION FROM L1D PREFETCHER ACCESS:     428514  HIT:     428514  MISS:          0  HIT %:        100  MISS %:          0   MPKI: 0
PSCL5 PREFETCH  REQUESTED:          0  ISSUED:          0  USEFUL:          0  USELESS:          0
PSCL5 USEFUL LOAD PREFETCHES:          0 PREFETCH ISSUED TO LOWER LEVEL:          0  ACCURACY: -nan
PSCL5 TIMELY PREFETCHES:          0 LATE PREFETCHES: 0 DROPPED PREFETCHES: 0
PSCL5 PREFETCHES SAME FILL-ORIGIN LEVEL: 0 DIFFERENT FILL-ORIGIN LEVEL: 0

PSCL4 TOTAL     ACCESS:     628118  HIT:     628118  MISS:          0  HIT %:        100  MISS %:          0   MPKI: 0
PSCL4 LOAD TRANSLATION ACCESS:     199604  HIT:     199604  MISS:          0  HIT %:        100  MISS %:          0   MPKI: 0
PSCL4 TRANSLATION FROM L1D PREFETCHER ACCESS:     428514  HIT:     428514  MISS:          0  HIT %:        100  MISS %:          0   MPKI: 0
PSCL4 PREFETCH  REQUESTED:          0  ISSUED:          0  USEFUL:          0  USELESS:          0
PSCL4 USEFUL LOAD PREFETCHES:          0 PREFETCH ISSUED TO LOWER LEVEL:          0  ACCURACY: -nan
PSCL4 TIMELY PREFETCHES:          0 LATE PREFETCHES: 0 DROPPED PREFETCHES: 0
PSCL4 PREFETCHES SAME FILL-ORIGIN LEVEL: 0 DIFFERENT FILL-ORIGIN LEVEL: 0

PSCL3 TOTAL     ACCESS:     628118  HIT:     628118  MISS:          0  HIT %:        100  MISS %:          0   MPKI: 0
PSCL3 LOAD TRANSLATION ACCESS:     199604  HIT:     199604  MISS:          0  HIT %:        100  MISS %:          0   MPKI: 0
PSCL3 TRANSLATION FROM L1D PREFETCHER ACCESS:     428514  HIT:     428514  MISS:          0  HIT %:        100  MISS %:          0   MPKI: 0
PSCL3 PREFETCH  REQUESTED:          0  ISSUED:          0  USEFUL:          0  USELESS:          0
PSCL3 USEFUL LOAD PREFETCHES:          0 PREFETCH ISSUED TO LOWER LEVEL:          0  ACCURACY: -nan
PSCL3 TIMELY PREFETCHES:          0 LATE PREFETCHES: 0 DROPPED PREFETCHES: 0
PSCL3 PREFETCHES SAME FILL-ORIGIN LEVEL: 0 DIFFERENT FILL-ORIGIN LEVEL: 0

PSCL2 TOTAL     ACCESS:     628118  HIT:     434215  MISS:     193903  HIT %:    69.1295  MISS %:    30.8705   MPKI: 3.87806
PSCL2 LOAD TRANSLATION ACCESS:     326278  HIT:     132375  MISS:     193903  HIT %:    40.5712  MISS %:    59.4288   MPKI: 3.87806
PSCL2 TRANSLATION FROM L1D PREFETCHER ACCESS:     301840  HIT:     301840  MISS:          0  HIT %:        100  MISS %:          0   MPKI: 0
PSCL2 PREFETCH  REQUESTED:          0  ISSUED:          0  USEFUL:          0  USELESS:          0
PSCL2 USEFUL LOAD PREFETCHES:          0 PREFETCH ISSUED TO LOWER LEVEL:          0  ACCURACY: -nan
PSCL2 TIMELY PREFETCHES:          0 LATE PREFETCHES: 0 DROPPED PREFETCHES: 0
PSCL2 PREFETCHES SAME FILL-ORIGIN LEVEL: 0 DIFFERENT FILL-ORIGIN LEVEL: 0

LLC TOTAL     ACCESS:   12061714  HIT:    6453117  MISS:    5608597  HIT %:    53.5008  MISS %:    46.4992   MPKI: 112.172
LLC LOAD      ACCESS:    3592186  HIT:    1474770  MISS:    2117416  HIT %:    41.0549  MISS %:    58.9451   MPKI: 42.3483
LLC RFO       ACCESS:      31168  HIT:      11105  MISS:      20063  HIT %:    35.6295  MISS %:    64.3705   MPKI: 0.40126
LLC PREFETCH  ACCESS:    7599758  HIT:    4312360  MISS:    3287398  HIT %:    56.7434  MISS %:    43.2566   MPKI: 65.748
AGUS PREFETCH L1 MISS: 0
LLC WRITEBACK ACCESS:     491589  HIT:     490576  MISS:       1013  HIT %:    99.7939  MISS %:   0.206066   MPKI: 0.02026
LLC LOAD TRANSLATION ACCESS:     143283  HIT:      80369  MISS:      62914  HIT %:    56.0911  MISS %:    43.9089   MPKI: 1.25828
LLC TRANSLATION FROM L1D PREFETCHER ACCESS:     203730  HIT:      83937  MISS:     119793  HIT %:    41.2001  MISS %:    58.7999   MPKI: 2.39586
LLC PREFETCH  REQUESTED:          0  ISSUED:          0  USEFUL:     282863  USELESS:    3123346
LLC USEFUL LOAD PREFETCHES:     282863 PREFETCH ISSUED TO LOWER LEVEL:    3287398  ACCURACY: 8.60446
LLC TIMELY PREFETCHES:     282863 LATE PREFETCHES: 0 DROPPED PREFETCHES: 0
LLC PREFETCHES SAME FILL-ORIGIN LEVEL: 0 DIFFERENT FILL-ORIGIN LEVEL: 0
LLC AVERAGE MISS LATENCY: 211.539 cycles
LLC RQ	ACCESS:    3970367	FORWARD:          0	MERGED:          0	TO_CACHE:    3970367
LLC WQ	ACCESS:     491589	FORWARD:          3	MERGED:          0	TO_CACHE:     491589
LLC PQ	ACCESS:    7599760	FORWARD:          0	MERGED:          0	TO_CACHE:    7599757

LLC Dense regions hint to LLC: 0

RAW hits: 147519
Loads Generated: 16146695
Loads sent to L1D: 15999173
Stores Generated: 1282255
Stores sent to L1D: 1282255
Major fault: 0 Minor fault: 83728
Allocated PAGES: 83728

stream: 
stream:times selected: 12524740
stream:pref_filled: 10720963
stream:pref_useful: 92109
stream:pref_late: 10752
stream:misses: 2749317
stream:misses_by_poll: 0

CS: 
CS:times selected: 3618529
CS:pref_filled: 2804947
CS:pref_useful: 36
CS:pref_late: 1
CS:misses: 47602
CS:misses_by_poll: 3498

CPLX: 
CPLX:times selected: 12420070
CPLX:pref_filled: 373650
CPLX:pref_useful: 2306
CPLX:pref_late: 38
CPLX:misses: 9878649
CPLX:misses_by_poll: 443

NL_L1: 
NL:times selected: 43688
NL:pref_filled: 33763
NL:pref_useful: 144
NL:pref_late: 27
NL:misses: 44714
NL:misses_by_poll: 0

total selections: 28607027
total_filled: 11076569
total_useful: 837812
total_late: 95918
total_polluted: 3941
total_misses_after_warmup: 5823437
conflicts: 9450

test: 9711187
ISB Prefetcher final stats
Training Unit Size: 65
Addr table size: 3976750 3976755


Triggers: 12524744
No Prediction: 4753825 37.9555
Stream end: 7585192
No translation: 3405754223 27192.2
Predictions: 7661478 61.1707


Stream divergence: 2123556 16.9549
Stream divergence -- new stream: 0

DRAM Statistics
 CHANNEL 0
 RQ ROW_BUFFER_HIT:     116320  ROW_BUFFER_MISS:    5491073
 DBUS_CONGESTED:        189
 WQ ROW_BUFFER_HIT:     218656  ROW_BUFFER_MISS:     186186  FULL:          0

 AVG_CONGESTED_CYCLE: 5
 All warmup complete: 2
Channel 0 Bank busy for read cycles: 0
Channel 0 Bank busy for write cycles: 0
Channel 0
Rank 0
0banks busy for read cycles: 112750098
0banks busy for write cycles: 54133
1banks busy for read cycles: 147333300
1banks busy for write cycles: 13983799
2banks busy for read cycles: 133773565
2banks busy for write cycles: 4336097
3banks busy for read cycles: 65027726
3banks busy for write cycles: 3057567
4banks busy for read cycles: 30717387
4banks busy for write cycles: 2997776
5banks busy for read cycles: 12430912
5banks busy for write cycles: 3182543
6banks busy for read cycles: 4346942
6banks busy for write cycles: 3553363
7banks busy for read cycles: 1071070
7banks busy for write cycles: 3911222
8banks busy for read cycles: 126384
8banks busy for write cycles: 3755815

CPU 0 Branch Prediction Accuracy: 88.5978% MPKI: 27.4129 Average ROB Occupancy at Mispredict: 19.7508
Branch types
NOT_BRANCH: 37978919 75.9578%
BRANCH_DIRECT_JUMP: 328173 0.656346%
BRANCH_INDIRECT: 0 0%
BRANCH_CONDITIONAL: 11629170 23.2583%
BRANCH_DIRECT_CALL: 31743 0.063486%
BRANCH_INDIRECT_CALL: 0 0%
BRANCH_RETURN: 31743 0.063486%
BRANCH_OTHER: 0 0%

DRAM PAGES: 1048576
Allocated PAGES: 83728
