
*** ChampSim Multicore Out-of-Order Simulator ***

Warmup Instructions: 50000000
Simulation Instructions: 50000000
Number of CPUs: 1
LLC sets: 2048
LLC ways: 16
Off-chip DRAM Size: 4096 MB Channels: 1 Width: 64-bit Data Rate: 6400 MT/s
CPU 0 runs ./traces/SPEC-CPU2017/429.mcf-184B.champsimtrace.xz
.xz
CPU 0 Bimodal branch predictor
BTB has LRU replacement policy
ITLB has LRU replacement policy
DTLB has LRU replacement policy
STLB has LRU replacement policy
L1I has LRU replacement policy
L1D has LRU replacement policy
L2C has LRU replacement policy
LLC has LRU replacement policy
Heartbeat CPU 0 instructions: 10000003 cycles: 3622481 heartbeat IPC: 2.76054 cumulative IPC: 2.76054 (Simulation time: 0 hr 4 min 53 sec) 
Heartbeat CPU 0 instructions: 20000000 cycles: 7261286 heartbeat IPC: 2.74815 cumulative IPC: 2.75433 (Simulation time: 0 hr 8 min 16 sec) 
Heartbeat CPU 0 instructions: 30000001 cycles: 10834024 heartbeat IPC: 2.79897 cumulative IPC: 2.76905 (Simulation time: 0 hr 11 min 40 sec) 
Heartbeat CPU 0 instructions: 40000000 cycles: 14462238 heartbeat IPC: 2.75618 cumulative IPC: 2.76582 (Simulation time: 0 hr 15 min 3 sec) 
Heartbeat CPU 0 instructions: 50000000 cycles: 18095474 heartbeat IPC: 2.75237 cumulative IPC: 2.76312 (Simulation time: 0 hr 18 min 26 sec) 

Warmup complete CPU 0 instructions: 50000004 cycles: 18095475 (Simulation time: 0 hr 18 min 26 sec) 

Heartbeat CPU 0 instructions: 60000000 cycles: 133160430 heartbeat IPC: 0.0869074 cumulative IPC: 0.0869074 (Simulation time: 0 hr 19 min 50 sec) 
Heartbeat CPU 0 instructions: 70000000 cycles: 267054435 heartbeat IPC: 0.0746859 cumulative IPC: 0.0803345 (Simulation time: 0 hr 21 min 21 sec) 
Heartbeat CPU 0 instructions: 80000000 cycles: 391010907 heartbeat IPC: 0.0806735 cumulative IPC: 0.0804472 (Simulation time: 0 hr 22 min 48 sec) 
Heartbeat CPU 0 instructions: 90000001 cycles: 508690561 heartbeat IPC: 0.0849765 cumulative IPC: 0.0815336 (Simulation time: 0 hr 24 min 13 sec) 
Heartbeat CPU 0 instructions: 100000000 cycles: 629864721 heartbeat IPC: 0.0825258 cumulative IPC: 0.0817302 (Simulation time: 0 hr 25 min 38 sec) 
Finished CPU 0 instructions: 50000000 cycles: 611769256 cumulative IPC: 0.0817302 (Simulation time: 0 hr 25 min 38 sec) 

ChampSim completed all CPUs

Region of Interest Statistics

CPU 0 cumulative IPC: 0.0817302 instructions: 50000000 cycles: 611769256
ITLB TOTAL     ACCESS:    9249730  HIT:    9249730  MISS:          0  HIT %:        100  MISS %:          0   MPKI: 0
ITLB LOAD TRANSLATION ACCESS:    9249730  HIT:    9249730  MISS:          0  HIT %:        100  MISS %:          0   MPKI: 0
ITLB PREFETCH  REQUESTED:          0  ISSUED:          0  USEFUL:          0  USELESS:          0
ITLB USEFUL LOAD PREFETCHES:          0 PREFETCH ISSUED TO LOWER LEVEL:          0  ACCURACY: -nan
ITLB TIMELY PREFETCHES:          0 LATE PREFETCHES: 0 DROPPED PREFETCHES: 0
ITLB PREFETCHES SAME FILL-ORIGIN LEVEL: 0 DIFFERENT FILL-ORIGIN LEVEL: 0
ITLB AVERAGE MISS LATENCY: -nan cycles
ITLB RQ	ACCESS:   10142270	FORWARD:          0	MERGED:     892541	TO_CACHE:    9249729

DTLB TOTAL     ACCESS:   11048477  HIT:    5365045  MISS:    5683432  HIT %:    48.5591  MISS %:    51.4409   MPKI: 113.669
DTLB LOAD TRANSLATION ACCESS:   11048477  HIT:    5365045  MISS:    5683432  HIT %:    48.5591  MISS %:    51.4409   MPKI: 113.669
DTLB PREFETCH  REQUESTED:          0  ISSUED:          0  USEFUL:          0  USELESS:          0
DTLB USEFUL LOAD PREFETCHES:          0 PREFETCH ISSUED TO LOWER LEVEL:          0  ACCURACY: -nan
DTLB TIMELY PREFETCHES:          0 LATE PREFETCHES: 0 DROPPED PREFETCHES: 0
DTLB PREFETCHES SAME FILL-ORIGIN LEVEL: 0 DIFFERENT FILL-ORIGIN LEVEL: 0
DTLB AVERAGE MISS LATENCY: 17.8589 cycles
DTLB RQ	ACCESS:   11926750	FORWARD:          0	MERGED:     870496	TO_CACHE:   11056254

STLB TOTAL     ACCESS:   12269454  HIT:   11901775  MISS:     367679  HIT %:    97.0033  MISS %:     2.9967   MPKI: 7.35358
STLB LOAD TRANSLATION ACCESS:    5683432  HIT:    5315753  MISS:     367679  HIT %:    93.5307  MISS %:    6.46931   MPKI: 7.35358
STLB TRANSLATION FROM L1D PREFETCHER ACCESS:    6586022  HIT:    6586022  MISS:          0  HIT %:        100  MISS %:          0   MPKI: 0
STLB PREFETCH  REQUESTED:          0  ISSUED:          0  USEFUL:          0  USELESS:          0
STLB USEFUL LOAD PREFETCHES:          0 PREFETCH ISSUED TO LOWER LEVEL:          0  ACCURACY: -nan
STLB TIMELY PREFETCHES:          0 LATE PREFETCHES: 0 DROPPED PREFETCHES: 0
STLB PREFETCHES SAME FILL-ORIGIN LEVEL: 0 DIFFERENT FILL-ORIGIN LEVEL: 0
STLB AVERAGE MISS LATENCY: 135.809 cycles
STLB RQ	ACCESS:   14355370	FORWARD:          0	MERGED:    2085920	TO_CACHE:   12269450

STLB Hit, L1D data hit: 0
STLB Hit, L2C data hit: 0
STLB Hit, LLC data hit: 0
STLB Hit, LLC data miss: 0
STLB STLB hints to L2: 0
L1D TOTAL     ACCESS:   20328174  HIT:    6021386  MISS:   14306788  HIT %:    29.6209  MISS %:    70.3791   MPKI: 286.136
L1D LOAD      ACCESS:   10697526  HIT:    4202725  MISS:    6494801  HIT %:    39.2869  MISS %:    60.7131   MPKI: 129.896
L1D RFO       ACCESS:    1199182  HIT:    1158414  MISS:      40768  HIT %:    96.6003  MISS %:    3.39965   MPKI: 0.81536
L1D PREFETCH  ACCESS:    8431466  HIT:     660247  MISS:    7771219  HIT %:    7.83075  MISS %:    92.1693   MPKI: 155.424
AGUS PREFETCH L1 MISS: 0
L1D PREFETCH  REQUESTED:   17386225  ISSUED:   17343994  USEFUL:     130131  USELESS:    7641075
L1D USEFUL LOAD PREFETCHES:     130131 PREFETCH ISSUED TO LOWER LEVEL:    7791523  ACCURACY: 1.67016
L1D TIMELY PREFETCHES:     130131 LATE PREFETCHES: 20073 DROPPED PREFETCHES: 0
L1D PREFETCHES SAME FILL-ORIGIN LEVEL: 7791523 DIFFERENT FILL-ORIGIN LEVEL: 0
L1D AVERAGE MISS LATENCY: 107.314 cycles
L1D RQ	ACCESS:   15929474	FORWARD:          0	MERGED:    5201993	TO_CACHE:   10721755
L1D WQ	ACCESS:    1282255	FORWARD:       5842	MERGED:      77260	TO_CACHE:    1204995
L1D PQ	ACCESS:    8672055	FORWARD:          0	MERGED:          0	TO_CACHE:    8671939

L1D UNIQUE REGIONS ACCESSED: 0
L1D REGIONS CONFLICTS: 0
L1D Cross Page Prefetch Requests: 0
L1D Same Page Prefetch Requests: 17924010
L1D ROI Sum of L1D PQ occupancy: 112618801
L1D PREFETCHES PUSHED FROM L2C: 0
L1I TOTAL     ACCESS:   10142271  HIT:   10142271  MISS:          0  HIT %:        100  MISS %:          0   MPKI: 0
L1I LOAD      ACCESS:   10142271  HIT:   10142271  MISS:          0  HIT %:        100  MISS %:          0   MPKI: 0
L1I PREFETCH  REQUESTED:          0  ISSUED:          0  USEFUL:          0  USELESS:          0
L1I USEFUL LOAD PREFETCHES:          0 PREFETCH ISSUED TO LOWER LEVEL:          0  ACCURACY: -nan
L1I TIMELY PREFETCHES:          0 LATE PREFETCHES: 0 DROPPED PREFETCHES: 0
L1I PREFETCHES SAME FILL-ORIGIN LEVEL: 0 DIFFERENT FILL-ORIGIN LEVEL: 0
L1I AVERAGE MISS LATENCY: -nan cycles
L1I RQ	ACCESS:   13989796	FORWARD:          0	MERGED:    3847526	TO_CACHE:   10142270

BTB TOTAL     ACCESS:   10746617  HIT:   10743468  MISS:       3149  HIT %:    99.9707  MISS %:  0.0293022   MPKI: 0.06298
BTB BRANCH_DIRECT_JUMP	ACCESS:     328173  HIT:     328155  MISS:         18
BTB BRANCH_INDIRECT	ACCESS:          0  HIT:          0  MISS:          0
BTB BRANCH_CONDITIONAL	ACCESS:   10354958  HIT:   10354903  MISS:         55
BTB BRANCH_DIRECT_CALL	ACCESS:      31743  HIT:      31737  MISS:          6
BTB BRANCH_INDIRECT_CALL	ACCESS:          0  HIT:          0  MISS:          0
BTB BRANCH_RETURN	ACCESS:      31743  HIT:      28673  MISS:       3070
BTB BRANCH_OTHER ACCESS:          0  HIT:          0  MISS:          0

L2C TOTAL     ACCESS:   15467452  HIT:    5725165  MISS:    9742287  HIT %:    37.0143  MISS %:    62.9857   MPKI: 194.846
L2C LOAD      ACCESS:    6474704  HIT:    2375341  MISS:    4099363  HIT %:    36.6865  MISS %:    63.3135   MPKI: 81.9873
L2C DATA LOAD MPKI: 81.9873
L2C INSTRUCTION LOAD MPKI: 0
L2C RFO       ACCESS:      40522  HIT:      15681  MISS:      24841  HIT %:    38.6975  MISS %:    61.3025   MPKI: 0.49682
L2C PREFETCH  ACCESS:    7819760  HIT:    2467223  MISS:    5352537  HIT %:    31.5511  MISS %:    68.4489   MPKI: 107.051
AGUS PREFETCH L1 MISS: 0
L2C DATA PREFETCH MPKI: 107.051
L2C INSTRUCTION PREFETCH MPKI: 0
L2C WRITEBACK ACCESS:     622716  HIT:     622707  MISS:          9  HIT %:    99.9986  MISS %: 0.00144528   MPKI: 0.00018
L2C LOAD TRANSLATION ACCESS:     509750  HIT:     244213  MISS:     265537  HIT %:    47.9084  MISS %:    52.0916   MPKI: 5.31074
L2C PREFETCH  REQUESTED:      31521  ISSUED:      31521  USEFUL:     971217  USELESS:    4381119
L2C USEFUL LOAD PREFETCHES:     971217 PREFETCH ISSUED TO LOWER LEVEL:    5352659  ACCURACY: 18.1446
L2C TIMELY PREFETCHES:     971217 LATE PREFETCHES: 122 DROPPED PREFETCHES: 0
L2C PREFETCHES SAME FILL-ORIGIN LEVEL: 13224 DIFFERENT FILL-ORIGIN LEVEL: 0
L2C AVERAGE MISS LATENCY: 139.257 cycles
L2C RQ	ACCESS:    7024999	FORWARD:          0	MERGED:          0	TO_CACHE:    7024975
L2C WQ	ACCESS:     622716	FORWARD:         25	MERGED:          0	TO_CACHE:     622716
L2C PQ	ACCESS:    7823044	FORWARD:          0	MERGED:       2230	TO_CACHE:    7820813

L2C Instructions Evicting Data 0
L2C Translations Evicting Data 251057
L2C Data Evicting Data 9225687
L2C Instructions Evicting Instructions 0
L2C Translations Evicting Instructions 0
L2C Data Evicting Instructions 0
L2C Instructions Evicting Translations 0
L2C Translations Evicting Translations 14480
L2C Data Evicting Translations 251054
L2C Dense regions hint from L2: 0
PSCL5 TOTAL     ACCESS:     367679  HIT:     367679  MISS:          0  HIT %:        100  MISS %:          0   MPKI: 0
PSCL5 LOAD TRANSLATION ACCESS:     367679  HIT:     367679  MISS:          0  HIT %:        100  MISS %:          0   MPKI: 0
PSCL5 PREFETCH  REQUESTED:          0  ISSUED:          0  USEFUL:          0  USELESS:          0
PSCL5 USEFUL LOAD PREFETCHES:          0 PREFETCH ISSUED TO LOWER LEVEL:          0  ACCURACY: -nan
PSCL5 TIMELY PREFETCHES:          0 LATE PREFETCHES: 0 DROPPED PREFETCHES: 0
PSCL5 PREFETCHES SAME FILL-ORIGIN LEVEL: 0 DIFFERENT FILL-ORIGIN LEVEL: 0

PSCL4 TOTAL     ACCESS:     367679  HIT:     367679  MISS:          0  HIT %:        100  MISS %:          0   MPKI: 0
PSCL4 LOAD TRANSLATION ACCESS:     367679  HIT:     367679  MISS:          0  HIT %:        100  MISS %:          0   MPKI: 0
PSCL4 PREFETCH  REQUESTED:          0  ISSUED:          0  USEFUL:          0  USELESS:          0
PSCL4 USEFUL LOAD PREFETCHES:          0 PREFETCH ISSUED TO LOWER LEVEL:          0  ACCURACY: -nan
PSCL4 TIMELY PREFETCHES:          0 LATE PREFETCHES: 0 DROPPED PREFETCHES: 0
PSCL4 PREFETCHES SAME FILL-ORIGIN LEVEL: 0 DIFFERENT FILL-ORIGIN LEVEL: 0

PSCL3 TOTAL     ACCESS:     367679  HIT:     367679  MISS:          0  HIT %:        100  MISS %:          0   MPKI: 0
PSCL3 LOAD TRANSLATION ACCESS:     367679  HIT:     367679  MISS:          0  HIT %:        100  MISS %:          0   MPKI: 0
PSCL3 PREFETCH  REQUESTED:          0  ISSUED:          0  USEFUL:          0  USELESS:          0
PSCL3 USEFUL LOAD PREFETCHES:          0 PREFETCH ISSUED TO LOWER LEVEL:          0  ACCURACY: -nan
PSCL3 TIMELY PREFETCHES:          0 LATE PREFETCHES: 0 DROPPED PREFETCHES: 0
PSCL3 PREFETCHES SAME FILL-ORIGIN LEVEL: 0 DIFFERENT FILL-ORIGIN LEVEL: 0

PSCL2 TOTAL     ACCESS:     367679  HIT:     225608  MISS:     142071  HIT %:      61.36  MISS %:      38.64   MPKI: 2.84142
PSCL2 LOAD TRANSLATION ACCESS:     367679  HIT:     225608  MISS:     142071  HIT %:      61.36  MISS %:      38.64   MPKI: 2.84142
PSCL2 PREFETCH  REQUESTED:          0  ISSUED:          0  USEFUL:          0  USELESS:          0
PSCL2 USEFUL LOAD PREFETCHES:          0 PREFETCH ISSUED TO LOWER LEVEL:          0  ACCURACY: -nan
PSCL2 TIMELY PREFETCHES:          0 LATE PREFETCHES: 0 DROPPED PREFETCHES: 0
PSCL2 PREFETCHES SAME FILL-ORIGIN LEVEL: 0 DIFFERENT FILL-ORIGIN LEVEL: 0

LLC TOTAL     ACCESS:   10222729  HIT:    4879324  MISS:    5343405  HIT %:    47.7302  MISS %:    52.2698   MPKI: 106.868
LLC LOAD      ACCESS:    4099252  HIT:    1538096  MISS:    2561156  HIT %:    37.5214  MISS %:    62.4786   MPKI: 51.2231
LLC RFO       ACCESS:      24830  HIT:       8133  MISS:      16697  HIT %:    32.7547  MISS %:    67.2453   MPKI: 0.33394
LLC PREFETCH  ACCESS:    5352659  HIT:    2745929  MISS:    2606730  HIT %:    51.3003  MISS %:    48.6997   MPKI: 52.1346
AGUS PREFETCH L1 MISS: 0
LLC WRITEBACK ACCESS:     480451  HIT:     479074  MISS:       1377  HIT %:    99.7134  MISS %:   0.286606   MPKI: 0.02754
LLC LOAD TRANSLATION ACCESS:     265537  HIT:     108092  MISS:     157445  HIT %:    40.7069  MISS %:    59.2931   MPKI: 3.1489
LLC PREFETCH  REQUESTED:          0  ISSUED:          0  USEFUL:     185349  USELESS:    2421933
LLC USEFUL LOAD PREFETCHES:     185349 PREFETCH ISSUED TO LOWER LEVEL:    2606730  ACCURACY: 7.1104
LLC TIMELY PREFETCHES:     185349 LATE PREFETCHES: 0 DROPPED PREFETCHES: 0
LLC PREFETCHES SAME FILL-ORIGIN LEVEL: 0 DIFFERENT FILL-ORIGIN LEVEL: 0
LLC AVERAGE MISS LATENCY: 198.955 cycles
LLC RQ	ACCESS:    4389618	FORWARD:          0	MERGED:          0	TO_CACHE:    4389618
LLC WQ	ACCESS:     480451	FORWARD:          0	MERGED:          0	TO_CACHE:     480451
LLC PQ	ACCESS:    5352659	FORWARD:          0	MERGED:          0	TO_CACHE:    5352659

LLC Dense regions hint to LLC: 0

RAW hits: 217217
Loads Generated: 16146694
Loads sent to L1D: 15929474
Stores Generated: 1282255
Stores sent to L1D: 1282255
Major fault: 0 Minor fault: 83728
Allocated PAGES: 83728

stream: 
stream:times selected: 20001947
stream:pref_filled: 12508647
stream:pref_useful: 165870
stream:pref_late: 25676
stream:misses: 2987259
stream:misses_by_poll: 0

CS: 
CS:times selected: 5019072
CS:pref_filled: 3114629
CS:pref_useful: 1523
CS:pref_late: 4
CS:misses: 102631
CS:misses_by_poll: 3396

CPLX: 
CPLX:times selected: 19790451
CPLX:pref_filled: 804077
CPLX:pref_useful: 7371
CPLX:pref_late: 139
CPLX:misses: 10523769
CPLX:misses_by_poll: 1017

NL_L1: 
NL:times selected: 95147
NL:pref_filled: 77037
NL:pref_useful: 429
NL:pref_late: 90
NL:misses: 69269
NL:misses_by_poll: 0

total selections: 44906617
total_filled: 7771219
total_useful: 130131
total_late: 26394
total_polluted: 4413
total_misses_after_warmup: 6519031
conflicts: 77799

test: 15330441

DRAM Statistics
 CHANNEL 0
 RQ ROW_BUFFER_HIT:     133501  ROW_BUFFER_MISS:    5208426
 DBUS_CONGESTED:        135
 WQ ROW_BUFFER_HIT:     304566  ROW_BUFFER_MISS:      98485  FULL:          0

 AVG_CONGESTED_CYCLE: 4
 All warmup complete: 2
Channel 0 Bank busy for read cycles: 0
Channel 0 Bank busy for write cycles: 0
Channel 0
Rank 0
0banks busy for read cycles: 130728043
0banks busy for write cycles: 58074
1banks busy for read cycles: 167467541
1banks busy for write cycles: 16928867
2banks busy for read cycles: 168180881
2banks busy for write cycles: 7652413
3banks busy for read cycles: 53651601
3banks busy for write cycles: 6856007
4banks busy for read cycles: 22137775
4banks busy for write cycles: 6868467
5banks busy for read cycles: 5358692
5banks busy for write cycles: 6657219
6banks busy for read cycles: 1126646
6banks busy for write cycles: 6315628
7banks busy for read cycles: 140451
7banks busy for write cycles: 6210514
8banks busy for read cycles: 11042
8banks busy for write cycles: 5419396

CPU 0 Branch Prediction Accuracy: 88.5978% MPKI: 27.4129 Average ROB Occupancy at Mispredict: 21.3734
Branch types
NOT_BRANCH: 37978919 75.9578%
BRANCH_DIRECT_JUMP: 328173 0.656346%
BRANCH_INDIRECT: 0 0%
BRANCH_CONDITIONAL: 11629170 23.2583%
BRANCH_DIRECT_CALL: 31743 0.063486%
BRANCH_INDIRECT_CALL: 0 0%
BRANCH_RETURN: 31743 0.063486%
BRANCH_OTHER: 0 0%

DRAM PAGES: 1048576
Allocated PAGES: 83728
