
*** ChampSim Multicore Out-of-Order Simulator ***

Warmup Instructions: 50000000
Simulation Instructions: 50000000
Number of CPUs: 1
LLC sets: 2048
LLC ways: 16
Off-chip DRAM Size: 4096 MB Channels: 1 Width: 64-bit Data Rate: 6400 MT/s
CPU 0 runs ./traces/SPEC-CPU2017/429.mcf-184B.champsimtrace.xz
.xz
CPU 0 Bimodal branch predictor
BTB has LRU replacement policy
ITLB has LRU replacement policy
DTLB has LRU replacement policy
STLB has LRU replacement policy
L1I has LRU replacement policy
Ideal ISB Prefetching
L1D has LRU replacement policy
L2C has LRU replacement policy
LLC has LRU replacement policy
Heartbeat CPU 0 instructions: 10000003 cycles: 3527519 heartbeat IPC: 2.83485 cumulative IPC: 2.83485 (Simulation time: 0 hr 3 min 31 sec) 
Heartbeat CPU 0 instructions: 20000000 cycles: 6973788 heartbeat IPC: 2.90169 cumulative IPC: 2.86788 (Simulation time: 0 hr 7 min 41 sec) 
Heartbeat CPU 0 instructions: 30000001 cycles: 10393614 heartbeat IPC: 2.92413 cumulative IPC: 2.88639 (Simulation time: 0 hr 12 min 9 sec) 
Heartbeat CPU 0 instructions: 40000000 cycles: 13835240 heartbeat IPC: 2.9056 cumulative IPC: 2.89117 (Simulation time: 0 hr 16 min 27 sec) 
Heartbeat CPU 0 instructions: 50000000 cycles: 17278939 heartbeat IPC: 2.90385 cumulative IPC: 2.8937 (Simulation time: 0 hr 20 min 50 sec) 

Warmup complete CPU 0 instructions: 50000004 cycles: 17278940 (Simulation time: 0 hr 20 min 50 sec) 

Heartbeat CPU 0 instructions: 60000000 cycles: 156717441 heartbeat IPC: 0.0717162 cumulative IPC: 0.0717162 (Simulation time: 0 hr 26 min 13 sec) 
Heartbeat CPU 0 instructions: 70000000 cycles: 291862967 heartbeat IPC: 0.0739943 cumulative IPC: 0.0728374 (Simulation time: 0 hr 31 min 11 sec) 
Heartbeat CPU 0 instructions: 80000000 cycles: 429132315 heartbeat IPC: 0.0728495 cumulative IPC: 0.0728415 (Simulation time: 0 hr 36 min 22 sec) 
Heartbeat CPU 0 instructions: 90000000 cycles: 543990312 heartbeat IPC: 0.087064 cumulative IPC: 0.0759429 (Simulation time: 0 hr 40 min 52 sec) 
Heartbeat CPU 0 instructions: 100000000 cycles: 663278943 heartbeat IPC: 0.0838303 cumulative IPC: 0.0773994 (Simulation time: 0 hr 45 min 32 sec) 
Finished CPU 0 instructions: 50000000 cycles: 646000013 cumulative IPC: 0.0773994 (Simulation time: 0 hr 45 min 32 sec) 

ChampSim completed all CPUs

Region of Interest Statistics

CPU 0 cumulative IPC: 0.0773994 instructions: 50000000 cycles: 646000013
ITLB TOTAL     ACCESS:    9253153  HIT:    9253153  MISS:          0  HIT %:        100  MISS %:          0   MPKI: 0
ITLB LOAD TRANSLATION ACCESS:    9253153  HIT:    9253153  MISS:          0  HIT %:        100  MISS %:          0   MPKI: 0
ITLB PREFETCH  REQUESTED:          0  ISSUED:          0  USEFUL:          0  USELESS:          0
ITLB USEFUL LOAD PREFETCHES:          0 PREFETCH ISSUED TO LOWER LEVEL:          0  ACCURACY: -nan
ITLB TIMELY PREFETCHES:          0 LATE PREFETCHES: 0 DROPPED PREFETCHES: 0
ITLB PREFETCHES SAME FILL-ORIGIN LEVEL: 0 DIFFERENT FILL-ORIGIN LEVEL: 0
ITLB AVERAGE MISS LATENCY: -nan cycles
ITLB RQ	ACCESS:   10146093	FORWARD:          0	MERGED:     892941	TO_CACHE:    9253152

DTLB TOTAL     ACCESS:   11088110  HIT:    5404173  MISS:    5683937  HIT %:    48.7385  MISS %:    51.2615   MPKI: 113.679
DTLB LOAD TRANSLATION ACCESS:   11088110  HIT:    5404173  MISS:    5683937  HIT %:    48.7385  MISS %:    51.2615   MPKI: 113.679
DTLB PREFETCH  REQUESTED:          0  ISSUED:          0  USEFUL:          0  USELESS:          0
DTLB USEFUL LOAD PREFETCHES:          0 PREFETCH ISSUED TO LOWER LEVEL:          0  ACCURACY: -nan
DTLB TIMELY PREFETCHES:          0 LATE PREFETCHES: 0 DROPPED PREFETCHES: 0
DTLB PREFETCHES SAME FILL-ORIGIN LEVEL: 0 DIFFERENT FILL-ORIGIN LEVEL: 0
DTLB AVERAGE MISS LATENCY: 13.6324 cycles
DTLB RQ	ACCESS:   11978148	FORWARD:          0	MERGED:     879828	TO_CACHE:   11098320

STLB TOTAL     ACCESS:   10351516  HIT:    9703964  MISS:     647552  HIT %:    93.7444  MISS %:    6.25562   MPKI: 12.951
STLB LOAD TRANSLATION ACCESS:    5683936  HIT:    5489989  MISS:     193947  HIT %:    96.5878  MISS %:     3.4122   MPKI: 3.87894
STLB TRANSLATION FROM L1D PREFETCHER ACCESS:    4667580  HIT:    4213975  MISS:     453605  HIT %:    90.2818  MISS %:    9.71821   MPKI: 9.0721
STLB PREFETCH  REQUESTED:          0  ISSUED:          0  USEFUL:     341613  USELESS:     111972
STLB USEFUL LOAD PREFETCHES:     341613 PREFETCH ISSUED TO LOWER LEVEL:          0  ACCURACY: inf
STLB TIMELY PREFETCHES:     341613 LATE PREFETCHES: 1453 DROPPED PREFETCHES: 0
STLB PREFETCHES SAME FILL-ORIGIN LEVEL: 0 DIFFERENT FILL-ORIGIN LEVEL: 0
STLB AVERAGE MISS LATENCY: 240.117 cycles
STLB RQ	ACCESS:   10498933	FORWARD:          0	MERGED:     144588	TO_CACHE:   10354345

STLB Hit, L1D data hit: 0
STLB Hit, L2C data hit: 0
STLB Hit, LLC data hit: 0
STLB Hit, LLC data miss: 0
STLB STLB hints to L2: 0
L1D TOTAL     ACCESS:   16717295  HIT:    6456202  MISS:   10261093  HIT %:    38.6199  MISS %:    61.3801   MPKI: 205.222
L1D LOAD      ACCESS:   10752342  HIT:    5033516  MISS:    5718826  HIT %:    46.8132  MISS %:    53.1868   MPKI: 114.377
L1D RFO       ACCESS:    1199937  HIT:    1140471  MISS:      59466  HIT %:    95.0442  MISS %:    4.95576   MPKI: 1.18932
L1D PREFETCH  ACCESS:    4765016  HIT:     282215  MISS:    4482801  HIT %:    5.92265  MISS %:    94.0774   MPKI: 89.656
AGUS PREFETCH L1 MISS: 0
L1D PREFETCH  REQUESTED:    9787324  ISSUED:    9665099  USEFUL:     873851  USELESS:    3608911
L1D USEFUL LOAD PREFETCHES:     873851 PREFETCH ISSUED TO LOWER LEVEL:    4506998  ACCURACY: 19.3888
L1D TIMELY PREFETCHES:     873851 LATE PREFETCHES: 24183 DROPPED PREFETCHES: 0
L1D PREFETCHES SAME FILL-ORIGIN LEVEL: 4506998 DIFFERENT FILL-ORIGIN LEVEL: 0
L1D AVERAGE MISS LATENCY: 129.429 cycles
L1D RQ	ACCESS:   16006522	FORWARD:          0	MERGED:    5227154	TO_CACHE:   10773175
L1D WQ	ACCESS:    1282255	FORWARD:       6204	MERGED:      77282	TO_CACHE:    1204973
L1D PQ	ACCESS:    4850102	FORWARD:          0	MERGED:      35094	TO_CACHE:    4814997

L1D UNIQUE REGIONS ACCESSED: 0
L1D REGIONS CONFLICTS: 0
L1D Cross Page Prefetch Requests: 9818232
L1D Same Page Prefetch Requests: 198323
L1D ROI Sum of L1D PQ occupancy: 256852898
L1D PREFETCHES PUSHED FROM L2C: 0
L1I TOTAL     ACCESS:   10146094  HIT:   10146094  MISS:          0  HIT %:        100  MISS %:          0   MPKI: 0
L1I LOAD      ACCESS:   10146094  HIT:   10146094  MISS:          0  HIT %:        100  MISS %:          0   MPKI: 0
L1I PREFETCH  REQUESTED:          0  ISSUED:          0  USEFUL:          0  USELESS:          0
L1I USEFUL LOAD PREFETCHES:          0 PREFETCH ISSUED TO LOWER LEVEL:          0  ACCURACY: -nan
L1I TIMELY PREFETCHES:          0 LATE PREFETCHES: 0 DROPPED PREFETCHES: 0
L1I PREFETCHES SAME FILL-ORIGIN LEVEL: 0 DIFFERENT FILL-ORIGIN LEVEL: 0
L1I AVERAGE MISS LATENCY: -nan cycles
L1I RQ	ACCESS:   13997809	FORWARD:          0	MERGED:    3851716	TO_CACHE:   10146093

BTB TOTAL     ACCESS:   10746617  HIT:   10743468  MISS:       3149  HIT %:    99.9707  MISS %:  0.0293022   MPKI: 0.06298
BTB BRANCH_DIRECT_JUMP	ACCESS:     328173  HIT:     328155  MISS:         18
BTB BRANCH_INDIRECT	ACCESS:          0  HIT:          0  MISS:          0
BTB BRANCH_CONDITIONAL	ACCESS:   10354958  HIT:   10354903  MISS:         55
BTB BRANCH_DIRECT_CALL	ACCESS:      31743  HIT:      31737  MISS:          6
BTB BRANCH_INDIRECT_CALL	ACCESS:          0  HIT:          0  MISS:          0
BTB BRANCH_RETURN	ACCESS:      31743  HIT:      28673  MISS:       3070
BTB BRANCH_OTHER ACCESS:          0  HIT:          0  MISS:          0

L2C TOTAL     ACCESS:   11726652  HIT:    5007829  MISS:    6718823  HIT %:    42.7047  MISS %:    57.2953   MPKI: 134.376
L2C LOAD      ACCESS:    5694637  HIT:    1653847  MISS:    4040790  HIT %:    29.0422  MISS %:    70.9578   MPKI: 80.8158
L2C DATA LOAD MPKI: 80.8158
L2C INSTRUCTION LOAD MPKI: 0
L2C RFO       ACCESS:      59450  HIT:      21533  MISS:      37917  HIT %:    36.2204  MISS %:    63.7796   MPKI: 0.75834
L2C PREFETCH  ACCESS:    4507000  HIT:    2162157  MISS:    2344843  HIT %:    47.9733  MISS %:    52.0267   MPKI: 46.8969
AGUS PREFETCH L1 MISS: 0
L2C DATA PREFETCH MPKI: 46.8969
L2C INSTRUCTION PREFETCH MPKI: 0
L2C WRITEBACK ACCESS:     621667  HIT:     621660  MISS:          7  HIT %:    99.9989  MISS %:   0.001126   MPKI: 0.00014
L2C LOAD TRANSLATION ACCESS:     256220  HIT:     144783  MISS:     111437  HIT %:    56.5073  MISS %:    43.4927   MPKI: 2.22874
L2C TRANSLATION FROM L1D PREFETCHER ACCESS:     587678  HIT:     403849  MISS:     183829  HIT %:    68.7194  MISS %:    31.2806   MPKI: 3.67658
L2C PREFETCH  REQUESTED:          0  ISSUED:          0  USEFUL:     266016  USELESS:    2262464
L2C USEFUL LOAD PREFETCHES:     266016 PREFETCH ISSUED TO LOWER LEVEL:    2344843  ACCURACY: 11.3447
L2C TIMELY PREFETCHES:     266016 LATE PREFETCHES: 0 DROPPED PREFETCHES: 0
L2C PREFETCHES SAME FILL-ORIGIN LEVEL: 0 DIFFERENT FILL-ORIGIN LEVEL: 0
L2C AVERAGE MISS LATENCY: 180.818 cycles
L2C RQ	ACCESS:    6597988	FORWARD:          0	MERGED:          0	TO_CACHE:    6597983
L2C WQ	ACCESS:     621667	FORWARD:          5	MERGED:          0	TO_CACHE:     621667
L2C PQ	ACCESS:    4506998	FORWARD:          0	MERGED:          0	TO_CACHE:    4506998

L2C Instructions Evicting Data 0
L2C Translations Evicting Data 273088
L2C Data Evicting Data 6150498
L2C Instructions Evicting Instructions 0
L2C Translations Evicting Instructions 0
L2C Data Evicting Instructions 0
L2C Instructions Evicting Translations 0
L2C Translations Evicting Translations 22178
L2C Data Evicting Translations 273052
L2C Dense regions hint from L2: 0
PSCL5 TOTAL     ACCESS:     647552  HIT:     647552  MISS:          0  HIT %:        100  MISS %:          0   MPKI: 0
PSCL5 LOAD TRANSLATION ACCESS:     192494  HIT:     192494  MISS:          0  HIT %:        100  MISS %:          0   MPKI: 0
PSCL5 TRANSLATION FROM L1D PREFETCHER ACCESS:     455058  HIT:     455058  MISS:          0  HIT %:        100  MISS %:          0   MPKI: 0
PSCL5 PREFETCH  REQUESTED:          0  ISSUED:          0  USEFUL:          0  USELESS:          0
PSCL5 USEFUL LOAD PREFETCHES:          0 PREFETCH ISSUED TO LOWER LEVEL:          0  ACCURACY: -nan
PSCL5 TIMELY PREFETCHES:          0 LATE PREFETCHES: 0 DROPPED PREFETCHES: 0
PSCL5 PREFETCHES SAME FILL-ORIGIN LEVEL: 0 DIFFERENT FILL-ORIGIN LEVEL: 0

PSCL4 TOTAL     ACCESS:     647552  HIT:     647552  MISS:          0  HIT %:        100  MISS %:          0   MPKI: 0
PSCL4 LOAD TRANSLATION ACCESS:     192494  HIT:     192494  MISS:          0  HIT %:        100  MISS %:          0   MPKI: 0
PSCL4 TRANSLATION FROM L1D PREFETCHER ACCESS:     455058  HIT:     455058  MISS:          0  HIT %:        100  MISS %:          0   MPKI: 0
PSCL4 PREFETCH  REQUESTED:          0  ISSUED:          0  USEFUL:          0  USELESS:          0
PSCL4 USEFUL LOAD PREFETCHES:          0 PREFETCH ISSUED TO LOWER LEVEL:          0  ACCURACY: -nan
PSCL4 TIMELY PREFETCHES:          0 LATE PREFETCHES: 0 DROPPED PREFETCHES: 0
PSCL4 PREFETCHES SAME FILL-ORIGIN LEVEL: 0 DIFFERENT FILL-ORIGIN LEVEL: 0

PSCL3 TOTAL     ACCESS:     647552  HIT:     647552  MISS:          0  HIT %:        100  MISS %:          0   MPKI: 0
PSCL3 LOAD TRANSLATION ACCESS:     192494  HIT:     192494  MISS:          0  HIT %:        100  MISS %:          0   MPKI: 0
PSCL3 TRANSLATION FROM L1D PREFETCHER ACCESS:     455058  HIT:     455058  MISS:          0  HIT %:        100  MISS %:          0   MPKI: 0
PSCL3 PREFETCH  REQUESTED:          0  ISSUED:          0  USEFUL:          0  USELESS:          0
PSCL3 USEFUL LOAD PREFETCHES:          0 PREFETCH ISSUED TO LOWER LEVEL:          0  ACCURACY: -nan
PSCL3 TIMELY PREFETCHES:          0 LATE PREFETCHES: 0 DROPPED PREFETCHES: 0
PSCL3 PREFETCHES SAME FILL-ORIGIN LEVEL: 0 DIFFERENT FILL-ORIGIN LEVEL: 0

PSCL2 TOTAL     ACCESS:     647552  HIT:     451206  MISS:     196346  HIT %:    69.6787  MISS %:    30.3213   MPKI: 3.92692
PSCL2 LOAD TRANSLATION ACCESS:     325114  HIT:     128768  MISS:     196346  HIT %:     39.607  MISS %:     60.393   MPKI: 3.92692
PSCL2 TRANSLATION FROM L1D PREFETCHER ACCESS:     322438  HIT:     322438  MISS:          0  HIT %:        100  MISS %:          0   MPKI: 0
PSCL2 PREFETCH  REQUESTED:          0  ISSUED:          0  USEFUL:          0  USELESS:          0
PSCL2 USEFUL LOAD PREFETCHES:          0 PREFETCH ISSUED TO LOWER LEVEL:          0  ACCURACY: -nan
PSCL2 TIMELY PREFETCHES:          0 LATE PREFETCHES: 0 DROPPED PREFETCHES: 0
PSCL2 PREFETCHES SAME FILL-ORIGIN LEVEL: 0 DIFFERENT FILL-ORIGIN LEVEL: 0

LLC TOTAL     ACCESS:    7172937  HIT:    3123479  MISS:    4049458  HIT %:    43.5453  MISS %:    56.4547   MPKI: 80.9892
LLC LOAD      ACCESS:    4040790  HIT:    1229601  MISS:    2811189  HIT %:    30.4297  MISS %:    69.5703   MPKI: 56.2238
LLC RFO       ACCESS:      37917  HIT:      11376  MISS:      26541  HIT %:    30.0024  MISS %:    69.9976   MPKI: 0.53082
LLC PREFETCH  ACCESS:    2344841  HIT:    1306964  MISS:    1037877  HIT %:    55.7379  MISS %:    44.2621   MPKI: 20.7575
AGUS PREFETCH L1 MISS: 0
LLC WRITEBACK ACCESS:     454123  HIT:     451349  MISS:       2774  HIT %:    99.3892  MISS %:   0.610848   MPKI: 0.05548
LLC LOAD TRANSLATION ACCESS:     111437  HIT:      63225  MISS:      48212  HIT %:    56.7361  MISS %:    43.2639   MPKI: 0.96424
LLC TRANSLATION FROM L1D PREFETCHER ACCESS:     183829  HIT:      60964  MISS:     122865  HIT %:    33.1634  MISS %:    66.8366   MPKI: 2.4573
LLC PREFETCH  REQUESTED:          0  ISSUED:          0  USEFUL:     146236  USELESS:    1012785
LLC USEFUL LOAD PREFETCHES:     146236 PREFETCH ISSUED TO LOWER LEVEL:    1037877  ACCURACY: 14.0899
LLC TIMELY PREFETCHES:     146236 LATE PREFETCHES: 0 DROPPED PREFETCHES: 0
LLC PREFETCHES SAME FILL-ORIGIN LEVEL: 0 DIFFERENT FILL-ORIGIN LEVEL: 0
LLC AVERAGE MISS LATENCY: 250.09 cycles
LLC RQ	ACCESS:    4373971	FORWARD:          0	MERGED:          0	TO_CACHE:    4373971
LLC WQ	ACCESS:     454123	FORWARD:          2	MERGED:          0	TO_CACHE:     454123
LLC PQ	ACCESS:    2344843	FORWARD:          0	MERGED:          0	TO_CACHE:    2344841

LLC Dense regions hint to LLC: 0

RAW hits: 140168
Loads Generated: 16146693
Loads sent to L1D: 16006522
Stores Generated: 1282255
Stores sent to L1D: 1282255
Major fault: 0 Minor fault: 83728
Allocated PAGES: 83728
Prefetcher final stats
Training Unit Size: 94
Addr table size: 3978199 3978229


Triggers: 12446490
No Prediction: 4750029 38.1636
Stream end: 7523671
No translation: 3332271807 26772.8
Predictions: 10016555 80.4769


Stream divergence: 2115300 16.9952
Stream divergence -- new stream: 0

DRAM Statistics
 CHANNEL 0
 RQ ROW_BUFFER_HIT:      68946  ROW_BUFFER_MISS:    3977664
 DBUS_CONGESTED:        141
 WQ ROW_BUFFER_HIT:     211710  ROW_BUFFER_MISS:     186893  FULL:          0

 AVG_CONGESTED_CYCLE: 4
 All warmup complete: 2
Channel 0 Bank busy for read cycles: 0
Channel 0 Bank busy for write cycles: 0
Channel 0
Rank 0
0banks busy for read cycles: 178226285
0banks busy for write cycles: 80656
1banks busy for read cycles: 318985543
1banks busy for write cycles: 18206956
2banks busy for read cycles: 66808387
2banks busy for write cycles: 5466055
3banks busy for read cycles: 23919245
3banks busy for write cycles: 3900513
4banks busy for read cycles: 9376689
4banks busy for write cycles: 3491553
5banks busy for read cycles: 4175049
5banks busy for write cycles: 3293655
6banks busy for read cycles: 2002500
6banks busy for write cycles: 3030145
7banks busy for read cycles: 656277
7banks busy for write cycles: 2567255
8banks busy for read cycles: 94068
8banks busy for write cycles: 1719183

CPU 0 Branch Prediction Accuracy: 88.5978% MPKI: 27.4129 Average ROB Occupancy at Mispredict: 19.8049
Branch types
NOT_BRANCH: 37978919 75.9578%
BRANCH_DIRECT_JUMP: 328173 0.656346%
BRANCH_INDIRECT: 0 0%
BRANCH_CONDITIONAL: 11629170 23.2583%
BRANCH_DIRECT_CALL: 31743 0.063486%
BRANCH_INDIRECT_CALL: 0 0%
BRANCH_RETURN: 31743 0.063486%
BRANCH_OTHER: 0 0%

DRAM PAGES: 1048576
Allocated PAGES: 83728
