
*** ChampSim Multicore Out-of-Order Simulator ***

Warmup Instructions: 50000000
Simulation Instructions: 50000000
Number of CPUs: 1
LLC sets: 2048
LLC ways: 16
Off-chip DRAM Size: 4096 MB Channels: 1 Width: 64-bit Data Rate: 6400 MT/s
CPU 0 runs ./traces/SPEC-CPU2017/429.mcf-184B.champsimtrace.xz
.xz
CPU 0 Bimodal branch predictor
BTB has LRU replacement policy
ITLB has LRU replacement policy
DTLB has LRU replacement policy
STLB has LRU replacement policy
L1I has LRU replacement policy
L1D has LRU replacement policy
L2C has LRU replacement policy
LLC has LRU replacement policy
Heartbeat CPU 0 instructions: 10000003 cycles: 3435281 heartbeat IPC: 2.91097 cumulative IPC: 2.91097 (Simulation time: 0 hr 0 min 31 sec) 
Heartbeat CPU 0 instructions: 20000000 cycles: 6873405 heartbeat IPC: 2.90856 cumulative IPC: 2.90977 (Simulation time: 0 hr 1 min 3 sec) 
Heartbeat CPU 0 instructions: 30000001 cycles: 10233166 heartbeat IPC: 2.9764 cumulative IPC: 2.93164 (Simulation time: 0 hr 1 min 34 sec) 
Heartbeat CPU 0 instructions: 40000000 cycles: 13667796 heartbeat IPC: 2.91152 cumulative IPC: 2.92659 (Simulation time: 0 hr 2 min 5 sec) 
Heartbeat CPU 0 instructions: 50000000 cycles: 17103163 heartbeat IPC: 2.9109 cumulative IPC: 2.92344 (Simulation time: 0 hr 2 min 36 sec) 

Warmup complete CPU 0 instructions: 50000004 cycles: 17103164 (Simulation time: 0 hr 2 min 36 sec) 

Heartbeat CPU 0 instructions: 60000000 cycles: 159697926 heartbeat IPC: 0.0701288 cumulative IPC: 0.0701288 (Simulation time: 0 hr 4 min 0 sec) 
Heartbeat CPU 0 instructions: 70000000 cycles: 318037304 heartbeat IPC: 0.0631555 cumulative IPC: 0.0664597 (Simulation time: 0 hr 5 min 30 sec) 
Heartbeat CPU 0 instructions: 80000000 cycles: 467755278 heartbeat IPC: 0.0667922 cumulative IPC: 0.0665702 (Simulation time: 0 hr 6 min 56 sec) 
Heartbeat CPU 0 instructions: 90000000 cycles: 604323092 heartbeat IPC: 0.0732237 cumulative IPC: 0.0681176 (Simulation time: 0 hr 8 min 17 sec) 
Heartbeat CPU 0 instructions: 100000000 cycles: 745440460 heartbeat IPC: 0.070863 cumulative IPC: 0.0686495 (Simulation time: 0 hr 9 min 40 sec) 
Finished CPU 0 instructions: 50000000 cycles: 728337306 cumulative IPC: 0.0686495 (Simulation time: 0 hr 9 min 40 sec) 

ChampSim completed all CPUs

Region of Interest Statistics

CPU 0 cumulative IPC: 0.0686495 instructions: 50000000 cycles: 728337306
ITLB TOTAL     ACCESS:    9249182  HIT:    9249182  MISS:          0  HIT %:        100  MISS %:          0   MPKI: 0
ITLB LOAD TRANSLATION ACCESS:    9249182  HIT:    9249182  MISS:          0  HIT %:        100  MISS %:          0   MPKI: 0
ITLB PREFETCH  REQUESTED:          0  ISSUED:          0  USEFUL:          0  USELESS:          0
ITLB USEFUL LOAD PREFETCHES:          0 PREFETCH ISSUED TO LOWER LEVEL:          0  ACCURACY: -nan
ITLB TIMELY PREFETCHES:          0 LATE PREFETCHES: 0 DROPPED PREFETCHES: 0
ITLB PREFETCHES SAME FILL-ORIGIN LEVEL: 0 DIFFERENT FILL-ORIGIN LEVEL: 0
ITLB AVERAGE MISS LATENCY: -nan cycles
ITLB RQ	ACCESS:   10143501	FORWARD:          0	MERGED:     894320	TO_CACHE:    9249181

DTLB TOTAL     ACCESS:   11046087  HIT:    5361842  MISS:    5684245  HIT %:    48.5406  MISS %:    51.4594   MPKI: 113.685
DTLB LOAD TRANSLATION ACCESS:   11046087  HIT:    5361842  MISS:    5684245  HIT %:    48.5406  MISS %:    51.4594   MPKI: 113.685
DTLB PREFETCH  REQUESTED:          0  ISSUED:          0  USEFUL:          0  USELESS:          0
DTLB USEFUL LOAD PREFETCHES:          0 PREFETCH ISSUED TO LOWER LEVEL:          0  ACCURACY: -nan
DTLB TIMELY PREFETCHES:          0 LATE PREFETCHES: 0 DROPPED PREFETCHES: 0
DTLB PREFETCHES SAME FILL-ORIGIN LEVEL: 0 DIFFERENT FILL-ORIGIN LEVEL: 0
DTLB AVERAGE MISS LATENCY: 16.8283 cycles
DTLB RQ	ACCESS:   11928969	FORWARD:          0	MERGED:     876110	TO_CACHE:   11052859

STLB TOTAL     ACCESS:    5684244  HIT:    5316459  MISS:     367785  HIT %:    93.5297  MISS %:    6.47025   MPKI: 7.3557
STLB LOAD TRANSLATION ACCESS:    5684244  HIT:    5316459  MISS:     367785  HIT %:    93.5297  MISS %:    6.47025   MPKI: 7.3557
STLB PREFETCH  REQUESTED:          0  ISSUED:          0  USEFUL:          0  USELESS:          0
STLB USEFUL LOAD PREFETCHES:          0 PREFETCH ISSUED TO LOWER LEVEL:          0  ACCURACY: -nan
STLB TIMELY PREFETCHES:          0 LATE PREFETCHES: 0 DROPPED PREFETCHES: 0
STLB PREFETCHES SAME FILL-ORIGIN LEVEL: 0 DIFFERENT FILL-ORIGIN LEVEL: 0
STLB AVERAGE MISS LATENCY: 120.079 cycles
STLB RQ	ACCESS:    5684244	FORWARD:          0	MERGED:          0	TO_CACHE:    5684244

STLB Hit, L1D data hit: 0
STLB Hit, L2C data hit: 0
STLB Hit, LLC data hit: 0
STLB Hit, LLC data miss: 0
STLB STLB hints to L2: 0
L1D TOTAL     ACCESS:   11902020  HIT:    5532623  MISS:    6369397  HIT %:    46.4847  MISS %:    53.5153   MPKI: 127.388
L1D LOAD      ACCESS:   10700947  HIT:    4388604  MISS:    6312343  HIT %:    41.0114  MISS %:    58.9886   MPKI: 126.247
L1D RFO       ACCESS:    1201073  HIT:    1144019  MISS:      57054  HIT %:    95.2497  MISS %:    4.75025   MPKI: 1.14108
L1D PREFETCH  REQUESTED:          0  ISSUED:          0  USEFUL:          0  USELESS:          0
L1D USEFUL LOAD PREFETCHES:          0 PREFETCH ISSUED TO LOWER LEVEL:          0  ACCURACY: -nan
L1D TIMELY PREFETCHES:          0 LATE PREFETCHES: 0 DROPPED PREFETCHES: 0
L1D PREFETCHES SAME FILL-ORIGIN LEVEL: 0 DIFFERENT FILL-ORIGIN LEVEL: 0
L1D AVERAGE MISS LATENCY: 171.429 cycles
L1D RQ	ACCESS:   15936903	FORWARD:          0	MERGED:    5206394	TO_CACHE:   10723971
L1D WQ	ACCESS:    1282255	FORWARD:       6538	MERGED:      77257	TO_CACHE:    1204998

L1D UNIQUE REGIONS ACCESSED: 0
L1D REGIONS CONFLICTS: 0
L1D Cross Page Prefetch Requests: 0
L1D Same Page Prefetch Requests: 0
L1D ROI Sum of L1D PQ occupancy: 0
L1D PREFETCHES PUSHED FROM L2C: 0
L1I TOTAL     ACCESS:   10143502  HIT:   10143502  MISS:          0  HIT %:        100  MISS %:          0   MPKI: 0
L1I LOAD      ACCESS:   10143502  HIT:   10143502  MISS:          0  HIT %:        100  MISS %:          0   MPKI: 0
L1I PREFETCH  REQUESTED:          0  ISSUED:          0  USEFUL:          0  USELESS:          0
L1I USEFUL LOAD PREFETCHES:          0 PREFETCH ISSUED TO LOWER LEVEL:          0  ACCURACY: -nan
L1I TIMELY PREFETCHES:          0 LATE PREFETCHES: 0 DROPPED PREFETCHES: 0
L1I PREFETCHES SAME FILL-ORIGIN LEVEL: 0 DIFFERENT FILL-ORIGIN LEVEL: 0
L1I AVERAGE MISS LATENCY: -nan cycles
L1I RQ	ACCESS:   13994132	FORWARD:          0	MERGED:    3850631	TO_CACHE:   10143501

BTB TOTAL     ACCESS:   10746617  HIT:   10743468  MISS:       3149  HIT %:    99.9707  MISS %:  0.0293022   MPKI: 0.06298
BTB BRANCH_DIRECT_JUMP	ACCESS:     328173  HIT:     328155  MISS:         18
BTB BRANCH_INDIRECT	ACCESS:          0  HIT:          0  MISS:          0
BTB BRANCH_CONDITIONAL	ACCESS:   10354958  HIT:   10354903  MISS:         55
BTB BRANCH_DIRECT_CALL	ACCESS:      31743  HIT:      31737  MISS:          6
BTB BRANCH_INDIRECT_CALL	ACCESS:          0  HIT:          0  MISS:          0
BTB BRANCH_RETURN	ACCESS:      31743  HIT:      28673  MISS:       3070
BTB BRANCH_OTHER ACCESS:          0  HIT:          0  MISS:          0

L2C TOTAL     ACCESS:    7474827  HIT:    2651910  MISS:    4822917  HIT %:    35.4779  MISS %:    64.5221   MPKI: 96.4583
L2C LOAD      ACCESS:    6312316  HIT:    1751789  MISS:    4560527  HIT %:    27.7519  MISS %:    72.2481   MPKI: 91.2105
L2C DATA LOAD MPKI: 91.2105
L2C INSTRUCTION LOAD MPKI: 0
L2C RFO       ACCESS:      57054  HIT:      19568  MISS:      37486  HIT %:    34.2973  MISS %:    65.7027   MPKI: 0.74972
L2C WRITEBACK ACCESS:     595573  HIT:     595564  MISS:          9  HIT %:    99.9985  MISS %: 0.00151115   MPKI: 0.00018
L2C LOAD TRANSLATION ACCESS:     509884  HIT:     284989  MISS:     224895  HIT %:    55.8929  MISS %:    44.1071   MPKI: 4.4979
L2C PREFETCH  REQUESTED:          0  ISSUED:          0  USEFUL:          0  USELESS:          0
L2C USEFUL LOAD PREFETCHES:          0 PREFETCH ISSUED TO LOWER LEVEL:          0  ACCURACY: -nan
L2C TIMELY PREFETCHES:          0 LATE PREFETCHES: 0 DROPPED PREFETCHES: 0
L2C PREFETCHES SAME FILL-ORIGIN LEVEL: 0 DIFFERENT FILL-ORIGIN LEVEL: 0
L2C AVERAGE MISS LATENCY: 213.125 cycles
L2C RQ	ACCESS:    6879280	FORWARD:          0	MERGED:          0	TO_CACHE:    6879254
L2C WQ	ACCESS:     595573	FORWARD:         26	MERGED:          0	TO_CACHE:     595573

L2C Instructions Evicting Data 0
L2C Translations Evicting Data 206223
L2C Data Evicting Data 4391773
L2C Instructions Evicting Instructions 0
L2C Translations Evicting Instructions 0
L2C Data Evicting Instructions 0
L2C Instructions Evicting Translations 0
L2C Translations Evicting Translations 18672
L2C Data Evicting Translations 206240
L2C Dense regions hint from L2: 0
PSCL5 TOTAL     ACCESS:     367785  HIT:     367785  MISS:          0  HIT %:        100  MISS %:          0   MPKI: 0
PSCL5 LOAD TRANSLATION ACCESS:     367785  HIT:     367785  MISS:          0  HIT %:        100  MISS %:          0   MPKI: 0
PSCL5 PREFETCH  REQUESTED:          0  ISSUED:          0  USEFUL:          0  USELESS:          0
PSCL5 USEFUL LOAD PREFETCHES:          0 PREFETCH ISSUED TO LOWER LEVEL:          0  ACCURACY: -nan
PSCL5 TIMELY PREFETCHES:          0 LATE PREFETCHES: 0 DROPPED PREFETCHES: 0
PSCL5 PREFETCHES SAME FILL-ORIGIN LEVEL: 0 DIFFERENT FILL-ORIGIN LEVEL: 0

PSCL4 TOTAL     ACCESS:     367785  HIT:     367785  MISS:          0  HIT %:        100  MISS %:          0   MPKI: 0
PSCL4 LOAD TRANSLATION ACCESS:     367785  HIT:     367785  MISS:          0  HIT %:        100  MISS %:          0   MPKI: 0
PSCL4 PREFETCH  REQUESTED:          0  ISSUED:          0  USEFUL:          0  USELESS:          0
PSCL4 USEFUL LOAD PREFETCHES:          0 PREFETCH ISSUED TO LOWER LEVEL:          0  ACCURACY: -nan
PSCL4 TIMELY PREFETCHES:          0 LATE PREFETCHES: 0 DROPPED PREFETCHES: 0
PSCL4 PREFETCHES SAME FILL-ORIGIN LEVEL: 0 DIFFERENT FILL-ORIGIN LEVEL: 0

PSCL3 TOTAL     ACCESS:     367785  HIT:     367785  MISS:          0  HIT %:        100  MISS %:          0   MPKI: 0
PSCL3 LOAD TRANSLATION ACCESS:     367785  HIT:     367785  MISS:          0  HIT %:        100  MISS %:          0   MPKI: 0
PSCL3 PREFETCH  REQUESTED:          0  ISSUED:          0  USEFUL:          0  USELESS:          0
PSCL3 USEFUL LOAD PREFETCHES:          0 PREFETCH ISSUED TO LOWER LEVEL:          0  ACCURACY: -nan
PSCL3 TIMELY PREFETCHES:          0 LATE PREFETCHES: 0 DROPPED PREFETCHES: 0
PSCL3 PREFETCHES SAME FILL-ORIGIN LEVEL: 0 DIFFERENT FILL-ORIGIN LEVEL: 0

PSCL2 TOTAL     ACCESS:     367785  HIT:     225686  MISS:     142099  HIT %:    61.3636  MISS %:    38.6364   MPKI: 2.84198
PSCL2 LOAD TRANSLATION ACCESS:     367785  HIT:     225686  MISS:     142099  HIT %:    61.3636  MISS %:    38.6364   MPKI: 2.84198
PSCL2 PREFETCH  REQUESTED:          0  ISSUED:          0  USEFUL:          0  USELESS:          0
PSCL2 USEFUL LOAD PREFETCHES:          0 PREFETCH ISSUED TO LOWER LEVEL:          0  ACCURACY: -nan
PSCL2 TIMELY PREFETCHES:          0 LATE PREFETCHES: 0 DROPPED PREFETCHES: 0
PSCL2 PREFETCHES SAME FILL-ORIGIN LEVEL: 0 DIFFERENT FILL-ORIGIN LEVEL: 0

LLC TOTAL     ACCESS:    5257854  HIT:    1651180  MISS:    3606674  HIT %:    31.4041  MISS %:    68.5959   MPKI: 72.1335
LLC LOAD      ACCESS:    4560527  HIT:    1126273  MISS:    3434254  HIT %:    24.6961  MISS %:    75.3039   MPKI: 68.6851
LLC RFO       ACCESS:      37486  HIT:       8916  MISS:      28570  HIT %:    23.7849  MISS %:    76.2151   MPKI: 0.5714
LLC WRITEBACK ACCESS:     434946  HIT:     431662  MISS:       3284  HIT %:     99.245  MISS %:   0.755036   MPKI: 0.06568
LLC LOAD TRANSLATION ACCESS:     224895  HIT:      84329  MISS:     140566  HIT %:    37.4971  MISS %:    62.5029   MPKI: 2.81132
LLC PREFETCH  REQUESTED:          0  ISSUED:          0  USEFUL:          0  USELESS:          0
LLC USEFUL LOAD PREFETCHES:          0 PREFETCH ISSUED TO LOWER LEVEL:          0  ACCURACY: -nan
LLC TIMELY PREFETCHES:          0 LATE PREFETCHES: 0 DROPPED PREFETCHES: 0
LLC PREFETCHES SAME FILL-ORIGIN LEVEL: 0 DIFFERENT FILL-ORIGIN LEVEL: 0
LLC AVERAGE MISS LATENCY: 244.76 cycles
LLC RQ	ACCESS:    4822908	FORWARD:          0	MERGED:          0	TO_CACHE:    4822908
LLC WQ	ACCESS:     434946	FORWARD:          0	MERGED:          0	TO_CACHE:     434946

LLC Dense regions hint to LLC: 0

RAW hits: 209784
Loads Generated: 16146690
Loads sent to L1D: 15936903
Stores Generated: 1282255
Stores sent to L1D: 1282255
Major fault: 0 Minor fault: 83728
Allocated PAGES: 83728

DRAM Statistics
 CHANNEL 0
 RQ ROW_BUFFER_HIT:      38924  ROW_BUFFER_MISS:    3564444
 DBUS_CONGESTED:         52
 WQ ROW_BUFFER_HIT:     310992  ROW_BUFFER_MISS:      85833  FULL:          0

 AVG_CONGESTED_CYCLE: 4
 All warmup complete: 2
Channel 0 Bank busy for read cycles: 0
Channel 0 Bank busy for write cycles: 0
Channel 0
Rank 0
0banks busy for read cycles: 192827921
0banks busy for write cycles: 98338
1banks busy for read cycles: 394120751
1banks busy for write cycles: 27564029
2banks busy for read cycles: 60003987
2banks busy for write cycles: 14095216
3banks busy for read cycles: 7301398
3banks busy for write cycles: 11366432
4banks busy for read cycles: 137922
4banks busy for write cycles: 8638257
5banks busy for read cycles: 4302
5banks busy for write cycles: 5884007
6banks busy for read cycles: 1082
6banks busy for write cycles: 3497300
7banks busy for read cycles: 62
7banks busy for write cycles: 1914213
8banks busy for read cycles: 0
8banks busy for write cycles: 882090

CPU 0 Branch Prediction Accuracy: 88.5978% MPKI: 27.4129 Average ROB Occupancy at Mispredict: 21.3738
Branch types
NOT_BRANCH: 37978919 75.9578%
BRANCH_DIRECT_JUMP: 328173 0.656346%
BRANCH_INDIRECT: 0 0%
BRANCH_CONDITIONAL: 11629170 23.2583%
BRANCH_DIRECT_CALL: 31743 0.063486%
BRANCH_INDIRECT_CALL: 0 0%
BRANCH_RETURN: 31743 0.063486%
BRANCH_OTHER: 0 0%

DRAM PAGES: 1048576
Allocated PAGES: 83728
