
*** ChampSim Multicore Out-of-Order Simulator ***

Warmup Instructions: 50000000
Simulation Instructions: 50000000
Number of CPUs: 1
LLC sets: 2048
LLC ways: 16
Off-chip DRAM Size: 4096 MB Channels: 1 Width: 64-bit Data Rate: 6400 MT/s
CPU 0 runs traces/SPEC-CPU2017/436.cactusADM-1804B.champsimtrace.xz
.xz
CPU 0 Bimodal branch predictor
BTB has LRU replacement policy
ITLB has LRU replacement policy
DTLB has LRU replacement policy
STLB has LRU replacement policy
L1I has LRU replacement policy
L1D has LRU replacement policy
L2C has LRU replacement policy
LLC has LRU replacement policy
Heartbeat CPU 0 instructions: 10000003 cycles: 4117177 heartbeat IPC: 2.42885 cumulative IPC: 2.42885 (Simulation time: 0 hr 5 min 32 sec) 
Heartbeat CPU 0 instructions: 20000000 cycles: 8315282 heartbeat IPC: 2.38203 cumulative IPC: 2.40521 (Simulation time: 0 hr 10 min 51 sec) 
Heartbeat CPU 0 instructions: 30000003 cycles: 12432084 heartbeat IPC: 2.42907 cumulative IPC: 2.41311 (Simulation time: 0 hr 16 min 24 sec) 
Heartbeat CPU 0 instructions: 40000000 cycles: 16548314 heartbeat IPC: 2.42941 cumulative IPC: 2.41716 (Simulation time: 0 hr 21 min 57 sec) 
Heartbeat CPU 0 instructions: 50000002 cycles: 20747073 heartbeat IPC: 2.38166 cumulative IPC: 2.40998 (Simulation time: 0 hr 27 min 15 sec) 

Warmup complete CPU 0 instructions: 50000002 cycles: 20747073 (Simulation time: 0 hr 27 min 15 sec) 

Heartbeat CPU 0 instructions: 60000000 cycles: 35435846 heartbeat IPC: 0.680792 cumulative IPC: 0.680792 (Simulation time: 0 hr 28 min 18 sec) 
Heartbeat CPU 0 instructions: 70000003 cycles: 51664795 heartbeat IPC: 0.616183 cumulative IPC: 0.646878 (Simulation time: 0 hr 29 min 24 sec) 
Heartbeat CPU 0 instructions: 80000000 cycles: 66366131 heartbeat IPC: 0.68021 cumulative IPC: 0.65762 (Simulation time: 0 hr 30 min 27 sec) 
Heartbeat CPU 0 instructions: 90000000 cycles: 82536576 heartbeat IPC: 0.618412 cumulative IPC: 0.647359 (Simulation time: 0 hr 31 min 33 sec) 
Heartbeat CPU 0 instructions: 100000000 cycles: 97219634 heartbeat IPC: 0.681057 cumulative IPC: 0.653829 (Simulation time: 0 hr 32 min 36 sec) 
Finished CPU 0 instructions: 50000000 cycles: 76472578 cumulative IPC: 0.653829 (Simulation time: 0 hr 32 min 36 sec) 

ChampSim completed all CPUs

Region of Interest Statistics

CPU 0 cumulative IPC: 0.653829 instructions: 50000000 cycles: 76472578
ITLB TOTAL     ACCESS:    8260901  HIT:    8260901  MISS:          0  HIT %:        100  MISS %:          0   MPKI: 0
ITLB LOAD TRANSLATION ACCESS:    8260901  HIT:    8260901  MISS:          0  HIT %:        100  MISS %:          0   MPKI: 0
ITLB PREFETCH  REQUESTED:          0  ISSUED:          0  USEFUL:          0  USELESS:          0
ITLB USEFUL LOAD PREFETCHES:          0 PREFETCH ISSUED TO LOWER LEVEL:          0  ACCURACY: -nan
ITLB TIMELY PREFETCHES:          0 LATE PREFETCHES: 0 DROPPED PREFETCHES: 0
ITLB PREFETCHES SAME FILL-ORIGIN LEVEL: 0 DIFFERENT FILL-ORIGIN LEVEL: 0
ITLB AVERAGE MISS LATENCY: -nan cycles
ITLB RQ	ACCESS:    9869370	FORWARD:          0	MERGED:    1608470	TO_CACHE:    8260900

DTLB TOTAL     ACCESS:   14686668  HIT:   13398351  MISS:    1288317  HIT %:     91.228  MISS %:    8.77202   MPKI: 25.7663
DTLB LOAD TRANSLATION ACCESS:   14686668  HIT:   13398351  MISS:    1288317  HIT %:     91.228  MISS %:    8.77202   MPKI: 25.7663
DTLB PREFETCH  REQUESTED:          0  ISSUED:          0  USEFUL:          0  USELESS:          0
DTLB USEFUL LOAD PREFETCHES:          0 PREFETCH ISSUED TO LOWER LEVEL:          0  ACCURACY: -nan
DTLB TIMELY PREFETCHES:          0 LATE PREFETCHES: 0 DROPPED PREFETCHES: 0
DTLB PREFETCHES SAME FILL-ORIGIN LEVEL: 0 DIFFERENT FILL-ORIGIN LEVEL: 0
DTLB AVERAGE MISS LATENCY: 26.9193 cycles
DTLB RQ	ACCESS:   23029021	FORWARD:          0	MERGED:    8322299	TO_CACHE:   14706722

STLB TOTAL     ACCESS:    1316482  HIT:     834974  MISS:     481508  HIT %:    63.4246  MISS %:    36.5754   MPKI: 9.63016
STLB LOAD TRANSLATION ACCESS:    1288317  HIT:     806809  MISS:     481508  HIT %:     62.625  MISS %:     37.375   MPKI: 9.63016
STLB TRANSLATION FROM L1D PREFETCHER ACCESS:      28165  HIT:      28165  MISS:          0  HIT %:        100  MISS %:          0   MPKI: 0
STLB PREFETCH  REQUESTED:          0  ISSUED:          0  USEFUL:          0  USELESS:          0
STLB USEFUL LOAD PREFETCHES:          0 PREFETCH ISSUED TO LOWER LEVEL:          0  ACCURACY: -nan
STLB TIMELY PREFETCHES:          0 LATE PREFETCHES: 0 DROPPED PREFETCHES: 0
STLB PREFETCHES SAME FILL-ORIGIN LEVEL: 0 DIFFERENT FILL-ORIGIN LEVEL: 0
STLB AVERAGE MISS LATENCY: 47.0695 cycles
STLB RQ	ACCESS:    1410177	FORWARD:          0	MERGED:      93694	TO_CACHE:    1316483

STLB Hit, L1D data hit: 0
STLB Hit, L2C data hit: 0
STLB Hit, LLC data hit: 0
STLB Hit, LLC data miss: 0
STLB STLB hints to L2: 0
L1D TOTAL     ACCESS:   23100025  HIT:   22735703  MISS:     364322  HIT %:    98.4229  MISS %:    1.57715   MPKI: 7.28644
L1D LOAD      ACCESS:   15167531  HIT:   14912192  MISS:     255339  HIT %:    98.3165  MISS %:    1.68346   MPKI: 5.10678
L1D RFO       ACCESS:    7810638  HIT:    7739965  MISS:      70673  HIT %:    99.0952  MISS %:    0.90483   MPKI: 1.41346
L1D PREFETCH  ACCESS:     121856  HIT:      83546  MISS:      38310  HIT %:    68.5613  MISS %:    31.4387   MPKI: 0.7662
AGUS PREFETCH L1 MISS: 0
L1D PREFETCH  REQUESTED:     307158  ISSUED:     243718  USEFUL:      38150  USELESS:        160
L1D USEFUL LOAD PREFETCHES:      38150 PREFETCH ISSUED TO LOWER LEVEL:      38310  ACCURACY: 99.5824
L1D TIMELY PREFETCHES:      38150 LATE PREFETCHES: 0 DROPPED PREFETCHES: 0
L1D PREFETCHES SAME FILL-ORIGIN LEVEL: 38310 DIFFERENT FILL-ORIGIN LEVEL: 0
L1D AVERAGE MISS LATENCY: 165.328 cycles
L1D RQ	ACCESS:   25723754	FORWARD:          0	MERGED:   10418561	TO_CACHE:   15169221
L1D WQ	ACCESS:    8407615	FORWARD:     135972	MERGED:     547815	TO_CACHE:    7859800
L1D PQ	ACCESS:     121859	FORWARD:          0	MERGED:          0	TO_CACHE:     121859

L1D UNIQUE REGIONS ACCESSED: 0
L1D REGIONS CONFLICTS: 0
L1D Cross Page Prefetch Requests: 0
L1D Same Page Prefetch Requests: 243057
L1D ROI Sum of L1D PQ occupancy: 1838695
L1D PREFETCHES PUSHED FROM L2C: 0
L1I TOTAL     ACCESS:    9869372  HIT:    9869372  MISS:          0  HIT %:        100  MISS %:          0   MPKI: 0
L1I LOAD      ACCESS:    9869372  HIT:    9869372  MISS:          0  HIT %:        100  MISS %:          0   MPKI: 0
L1I PREFETCH  REQUESTED:          0  ISSUED:          0  USEFUL:          0  USELESS:          0
L1I USEFUL LOAD PREFETCHES:          0 PREFETCH ISSUED TO LOWER LEVEL:          0  ACCURACY: -nan
L1I TIMELY PREFETCHES:          0 LATE PREFETCHES: 0 DROPPED PREFETCHES: 0
L1I PREFETCHES SAME FILL-ORIGIN LEVEL: 0 DIFFERENT FILL-ORIGIN LEVEL: 0
L1I AVERAGE MISS LATENCY: -nan cycles
L1I RQ	ACCESS:   16805003	FORWARD:          0	MERGED:    6935633	TO_CACHE:    9869370

BTB TOTAL     ACCESS:      60897  HIT:      60890  MISS:          7  HIT %:    99.9885  MISS %:  0.0114948   MPKI: 0.00014
BTB BRANCH_DIRECT_JUMP	ACCESS:        502  HIT:        500  MISS:          2
BTB BRANCH_INDIRECT	ACCESS:          0  HIT:          0  MISS:          0
BTB BRANCH_CONDITIONAL	ACCESS:      60395  HIT:      60390  MISS:          5
BTB BRANCH_DIRECT_CALL	ACCESS:          0  HIT:          0  MISS:          0
BTB BRANCH_INDIRECT_CALL	ACCESS:          0  HIT:          0  MISS:          0
BTB BRANCH_RETURN	ACCESS:          0  HIT:          0  MISS:          0
BTB BRANCH_OTHER ACCESS:          0  HIT:          0  MISS:          0

L2C TOTAL     ACCESS:    1363961  HIT:    1113798  MISS:     250163  HIT %:    81.6591  MISS %:    18.3409   MPKI: 5.00326
L2C LOAD      ACCESS:     255339  HIT:     114671  MISS:     140668  HIT %:    44.9093  MISS %:    55.0907   MPKI: 2.81336
L2C DATA LOAD MPKI: 2.81336
L2C INSTRUCTION LOAD MPKI: 0
L2C RFO       ACCESS:      70673  HIT:          2  MISS:      70671  HIT %: 0.00282994  MISS %:    99.9972   MPKI: 1.41342
L2C PREFETCH  ACCESS:      38310  HIT:         60  MISS:      38250  HIT %:   0.156617  MISS %:    99.8434   MPKI: 0.765
AGUS PREFETCH L1 MISS: 0
L2C DATA PREFETCH MPKI: 0.765
L2C INSTRUCTION PREFETCH MPKI: 0
L2C WRITEBACK ACCESS:      73552  HIT:      73463  MISS:         89  HIT %:     99.879  MISS %:   0.121003   MPKI: 0.00178
L2C LOAD TRANSLATION ACCESS:     926087  HIT:     925602  MISS:        485  HIT %:    99.9476  MISS %:  0.0523709   MPKI: 0.0097
L2C PREFETCH  REQUESTED:          0  ISSUED:          0  USEFUL:       1190  USELESS:      37060
L2C USEFUL LOAD PREFETCHES:       1190 PREFETCH ISSUED TO LOWER LEVEL:      38250  ACCURACY: 3.11111
L2C TIMELY PREFETCHES:       1190 LATE PREFETCHES: 0 DROPPED PREFETCHES: 0
L2C PREFETCHES SAME FILL-ORIGIN LEVEL: 0 DIFFERENT FILL-ORIGIN LEVEL: 0
L2C AVERAGE MISS LATENCY: 218.615 cycles
L2C RQ	ACCESS:    1252100	FORWARD:          0	MERGED:          0	TO_CACHE:    1252100
L2C WQ	ACCESS:      73552	FORWARD:          0	MERGED:          0	TO_CACHE:      73552
L2C PQ	ACCESS:      38310	FORWARD:          0	MERGED:          0	TO_CACHE:      38310

L2C Instructions Evicting Data 0
L2C Translations Evicting Data 485
L2C Data Evicting Data 249116
L2C Instructions Evicting Instructions 0
L2C Translations Evicting Instructions 0
L2C Data Evicting Instructions 0
L2C Instructions Evicting Translations 0
L2C Translations Evicting Translations 0
L2C Data Evicting Translations 473
L2C Dense regions hint from L2: 0
PSCL5 TOTAL     ACCESS:     481509  HIT:     481509  MISS:          0  HIT %:        100  MISS %:          0   MPKI: 0
PSCL5 LOAD TRANSLATION ACCESS:     481509  HIT:     481509  MISS:          0  HIT %:        100  MISS %:          0   MPKI: 0
PSCL5 PREFETCH  REQUESTED:          0  ISSUED:          0  USEFUL:          0  USELESS:          0
PSCL5 USEFUL LOAD PREFETCHES:          0 PREFETCH ISSUED TO LOWER LEVEL:          0  ACCURACY: -nan
PSCL5 TIMELY PREFETCHES:          0 LATE PREFETCHES: 0 DROPPED PREFETCHES: 0
PSCL5 PREFETCHES SAME FILL-ORIGIN LEVEL: 0 DIFFERENT FILL-ORIGIN LEVEL: 0

PSCL4 TOTAL     ACCESS:     481509  HIT:     481509  MISS:          0  HIT %:        100  MISS %:          0   MPKI: 0
PSCL4 LOAD TRANSLATION ACCESS:     481509  HIT:     481509  MISS:          0  HIT %:        100  MISS %:          0   MPKI: 0
PSCL4 PREFETCH  REQUESTED:          0  ISSUED:          0  USEFUL:          0  USELESS:          0
PSCL4 USEFUL LOAD PREFETCHES:          0 PREFETCH ISSUED TO LOWER LEVEL:          0  ACCURACY: -nan
PSCL4 TIMELY PREFETCHES:          0 LATE PREFETCHES: 0 DROPPED PREFETCHES: 0
PSCL4 PREFETCHES SAME FILL-ORIGIN LEVEL: 0 DIFFERENT FILL-ORIGIN LEVEL: 0

PSCL3 TOTAL     ACCESS:     481509  HIT:     481509  MISS:          0  HIT %:        100  MISS %:          0   MPKI: 0
PSCL3 LOAD TRANSLATION ACCESS:     481509  HIT:     481509  MISS:          0  HIT %:        100  MISS %:          0   MPKI: 0
PSCL3 PREFETCH  REQUESTED:          0  ISSUED:          0  USEFUL:          0  USELESS:          0
PSCL3 USEFUL LOAD PREFETCHES:          0 PREFETCH ISSUED TO LOWER LEVEL:          0  ACCURACY: -nan
PSCL3 TIMELY PREFETCHES:          0 LATE PREFETCHES: 0 DROPPED PREFETCHES: 0
PSCL3 PREFETCHES SAME FILL-ORIGIN LEVEL: 0 DIFFERENT FILL-ORIGIN LEVEL: 0

PSCL2 TOTAL     ACCESS:     481508  HIT:      36930  MISS:     444578  HIT %:    7.66965  MISS %:    92.3303   MPKI: 8.89156
PSCL2 LOAD TRANSLATION ACCESS:     481508  HIT:      36930  MISS:     444578  HIT %:    7.66965  MISS %:    92.3303   MPKI: 8.89156
PSCL2 PREFETCH  REQUESTED:          0  ISSUED:          0  USEFUL:          0  USELESS:          0
PSCL2 USEFUL LOAD PREFETCHES:          0 PREFETCH ISSUED TO LOWER LEVEL:          0  ACCURACY: -nan
PSCL2 TIMELY PREFETCHES:          0 LATE PREFETCHES: 0 DROPPED PREFETCHES: 0
PSCL2 PREFETCHES SAME FILL-ORIGIN LEVEL: 0 DIFFERENT FILL-ORIGIN LEVEL: 0

LLC TOTAL     ACCESS:     320808  HIT:      70656  MISS:     250152  HIT %:    22.0244  MISS %:    77.9756   MPKI: 5.00304
LLC LOAD      ACCESS:     140668  HIT:         24  MISS:     140644  HIT %:  0.0170614  MISS %:    99.9829   MPKI: 2.81288
LLC RFO       ACCESS:      70671  HIT:          0  MISS:      70671  HIT %:          0  MISS %:        100   MPKI: 1.41342
LLC PREFETCH  ACCESS:      38250  HIT:          0  MISS:      38250  HIT %:          0  MISS %:        100   MPKI: 0.765
AGUS PREFETCH L1 MISS: 0
LLC WRITEBACK ACCESS:      70734  HIT:      70632  MISS:        102  HIT %:    99.8558  MISS %:   0.144202   MPKI: 0.00204
LLC LOAD TRANSLATION ACCESS:        485  HIT:          0  MISS:        485  HIT %:          0  MISS %:        100   MPKI: 0.0097
LLC PREFETCH  REQUESTED:          0  ISSUED:          0  USEFUL:          0  USELESS:      39833
LLC USEFUL LOAD PREFETCHES:          0 PREFETCH ISSUED TO LOWER LEVEL:      38250  ACCURACY: 0
LLC TIMELY PREFETCHES:          0 LATE PREFETCHES: 0 DROPPED PREFETCHES: 0
LLC PREFETCHES SAME FILL-ORIGIN LEVEL: 0 DIFFERENT FILL-ORIGIN LEVEL: 0
LLC AVERAGE MISS LATENCY: 188.197 cycles
LLC RQ	ACCESS:     211824	FORWARD:          0	MERGED:          0	TO_CACHE:     211824
LLC WQ	ACCESS:      70734	FORWARD:          0	MERGED:          0	TO_CACHE:      70734
LLC PQ	ACCESS:      38250	FORWARD:          0	MERGED:          0	TO_CACHE:      38250

LLC Dense regions hint to LLC: 0

RAW hits: 3306915
Loads Generated: 29030685
Loads sent to L1D: 25723754
Stores Generated: 8407608
Stores sent to L1D: 8407615
Major fault: 0 Minor fault: 4630
Allocated PAGES: 4630

stream: 
stream:times selected: 75067
stream:pref_filled: 77882
stream:pref_useful: 77694
stream:pref_late: 0
stream:misses: 41
stream:misses_by_poll: 0

CS: 
CS:times selected: 63086
CS:pref_filled: 162
CS:pref_useful: 162
CS:pref_late: 0
CS:misses: 3764
CS:misses_by_poll: 0

CPLX: 
CPLX:times selected: 11896
CPLX:pref_filled: 138
CPLX:pref_useful: 55
CPLX:pref_late: 0
CPLX:misses: 457
CPLX:misses_by_poll: 0

NL_L1: 
NL:times selected: 10
NL:pref_filled: 10
NL:pref_useful: 10
NL:pref_late: 0
NL:misses: 0
NL:misses_by_poll: 0

total selections: 150059
total_filled: 38310
total_useful: 38150
total_late: 0
total_polluted: 0
total_misses_after_warmup: 257022
conflicts: 16334605

test: 6566

DRAM Statistics
 CHANNEL 0
 RQ ROW_BUFFER_HIT:      58854  ROW_BUFFER_MISS:     191196
 DBUS_CONGESTED:        171
 WQ ROW_BUFFER_HIT:      13169  ROW_BUFFER_MISS:      59142  FULL:          0

 AVG_CONGESTED_CYCLE: 4
 All warmup complete: 2
Channel 0 Bank busy for read cycles: 0
Channel 0 Bank busy for write cycles: 0
Channel 0
Rank 0
0banks busy for read cycles: 49845734
0banks busy for write cycles: 30246
1banks busy for read cycles: 14287462
1banks busy for write cycles: 4734609
2banks busy for read cycles: 1575687
2banks busy for write cycles: 921894
3banks busy for read cycles: 957945
3banks busy for write cycles: 591312
4banks busy for read cycles: 1498276
4banks busy for write cycles: 362497
5banks busy for read cycles: 600699
5banks busy for write cycles: 201177
6banks busy for read cycles: 165711
6banks busy for write cycles: 70357
7banks busy for read cycles: 163019
7banks busy for write cycles: 86314
8banks busy for read cycles: 30835
8banks busy for write cycles: 348805

CPU 0 Branch Prediction Accuracy: 99.1743% MPKI: 0.01016 Average ROB Occupancy at Mispredict: 246.154
Branch types
NOT_BRANCH: 49938478 99.877%
BRANCH_DIRECT_JUMP: 502 0.001004%
BRANCH_INDIRECT: 0 0%
BRANCH_CONDITIONAL: 61022 0.122044%
BRANCH_DIRECT_CALL: 0 0%
BRANCH_INDIRECT_CALL: 0 0%
BRANCH_RETURN: 0 0%
BRANCH_OTHER: 0 0%

DRAM PAGES: 1048576
Allocated PAGES: 4630
