
*** ChampSim Multicore Out-of-Order Simulator ***

Warmup Instructions: 50000000
Simulation Instructions: 50000000
Number of CPUs: 1
LLC sets: 2048
LLC ways: 16
Off-chip DRAM Size: 4096 MB Channels: 1 Width: 64-bit Data Rate: 6400 MT/s
CPU 0 runs traces/SPEC-CPU2017/436.cactusADM-1804B.champsimtrace.xz
.xz
CPU 0 Bimodal branch predictor
BTB has LRU replacement policy
ITLB has LRU replacement policy
DTLB has LRU replacement policy
STLB has LRU replacement policy
L1I has LRU replacement policy
L1D has LRU replacement policy
L2C has LRU replacement policy
LLC has LRU replacement policy
Heartbeat CPU 0 instructions: 10000003 cycles: 4114145 heartbeat IPC: 2.43064 cumulative IPC: 2.43064 (Simulation time: 0 hr 0 min 49 sec) 
Heartbeat CPU 0 instructions: 20000000 cycles: 8308446 heartbeat IPC: 2.38419 cumulative IPC: 2.40719 (Simulation time: 0 hr 1 min 38 sec) 
Heartbeat CPU 0 instructions: 30000003 cycles: 12421946 heartbeat IPC: 2.43102 cumulative IPC: 2.41508 (Simulation time: 0 hr 2 min 27 sec) 
Heartbeat CPU 0 instructions: 40000000 cycles: 16535107 heartbeat IPC: 2.43122 cumulative IPC: 2.4191 (Simulation time: 0 hr 3 min 16 sec) 
Heartbeat CPU 0 instructions: 50000002 cycles: 20729948 heartbeat IPC: 2.38388 cumulative IPC: 2.41197 (Simulation time: 0 hr 4 min 5 sec) 

Warmup complete CPU 0 instructions: 50000002 cycles: 20729948 (Simulation time: 0 hr 4 min 5 sec) 

Heartbeat CPU 0 instructions: 60000000 cycles: 33151209 heartbeat IPC: 0.805071 cumulative IPC: 0.805071 (Simulation time: 0 hr 5 min 7 sec) 
Heartbeat CPU 0 instructions: 70000003 cycles: 47343435 heartbeat IPC: 0.704611 cumulative IPC: 0.751499 (Simulation time: 0 hr 6 min 11 sec) 
Heartbeat CPU 0 instructions: 80000000 cycles: 59722341 heartbeat IPC: 0.807826 cumulative IPC: 0.769381 (Simulation time: 0 hr 7 min 13 sec) 
Heartbeat CPU 0 instructions: 90000000 cycles: 73842977 heartbeat IPC: 0.708183 cumulative IPC: 0.753111 (Simulation time: 0 hr 8 min 17 sec) 
Heartbeat CPU 0 instructions: 100000000 cycles: 86181262 heartbeat IPC: 0.810485 cumulative IPC: 0.763927 (Simulation time: 0 hr 9 min 19 sec) 
Finished CPU 0 instructions: 50000000 cycles: 65451331 cumulative IPC: 0.763926 (Simulation time: 0 hr 9 min 19 sec) 

ChampSim completed all CPUs

Region of Interest Statistics

CPU 0 cumulative IPC: 0.763926 instructions: 50000000 cycles: 65451331
ITLB TOTAL     ACCESS:    8134978  HIT:    8134978  MISS:          0  HIT %:        100  MISS %:          0   MPKI: 0
ITLB LOAD TRANSLATION ACCESS:    8134978  HIT:    8134978  MISS:          0  HIT %:        100  MISS %:          0   MPKI: 0
ITLB PREFETCH  REQUESTED:          0  ISSUED:          0  USEFUL:          0  USELESS:          0
ITLB USEFUL LOAD PREFETCHES:          0 PREFETCH ISSUED TO LOWER LEVEL:          0  ACCURACY: -nan
ITLB TIMELY PREFETCHES:          0 LATE PREFETCHES: 0 DROPPED PREFETCHES: 0
ITLB PREFETCHES SAME FILL-ORIGIN LEVEL: 0 DIFFERENT FILL-ORIGIN LEVEL: 0
ITLB AVERAGE MISS LATENCY: -nan cycles
ITLB RQ	ACCESS:    9753570	FORWARD:          0	MERGED:    1618593	TO_CACHE:    8134977

DTLB TOTAL     ACCESS:   14618615  HIT:   13330193  MISS:    1288422  HIT %:    91.1864  MISS %:    8.81357   MPKI: 25.7684
DTLB LOAD TRANSLATION ACCESS:   14618615  HIT:   13330193  MISS:    1288422  HIT %:    91.1864  MISS %:    8.81357   MPKI: 25.7684
DTLB PREFETCH  REQUESTED:          0  ISSUED:          0  USEFUL:          0  USELESS:          0
DTLB USEFUL LOAD PREFETCHES:          0 PREFETCH ISSUED TO LOWER LEVEL:          0  ACCURACY: -nan
DTLB TIMELY PREFETCHES:          0 LATE PREFETCHES: 0 DROPPED PREFETCHES: 0
DTLB PREFETCHES SAME FILL-ORIGIN LEVEL: 0 DIFFERENT FILL-ORIGIN LEVEL: 0
DTLB AVERAGE MISS LATENCY: 26.9177 cycles
DTLB RQ	ACCESS:   22980355	FORWARD:          0	MERGED:    8341671	TO_CACHE:   14638684

STLB TOTAL     ACCESS:    1331372  HIT:     849463  MISS:     481909  HIT %:    63.8036  MISS %:    36.1964   MPKI: 9.63818
STLB LOAD TRANSLATION ACCESS:    1288422  HIT:     806765  MISS:     481657  HIT %:    62.6165  MISS %:    37.3835   MPKI: 9.63314
STLB TRANSLATION FROM L1D PREFETCHER ACCESS:      42950  HIT:      42698  MISS:        252  HIT %:    99.4133  MISS %:   0.586729   MPKI: 0.00504
STLB PREFETCH  REQUESTED:          0  ISSUED:          0  USEFUL:        230  USELESS:         21
STLB USEFUL LOAD PREFETCHES:        230 PREFETCH ISSUED TO LOWER LEVEL:          0  ACCURACY: inf
STLB TIMELY PREFETCHES:        230 LATE PREFETCHES: 0 DROPPED PREFETCHES: 0
STLB PREFETCHES SAME FILL-ORIGIN LEVEL: 0 DIFFERENT FILL-ORIGIN LEVEL: 0
STLB AVERAGE MISS LATENCY: 47.066 cycles
STLB RQ	ACCESS:    1519541	FORWARD:          0	MERGED:     188168	TO_CACHE:    1331373

STLB Hit, L1D data hit: 0
STLB Hit, L2C data hit: 0
STLB Hit, LLC data hit: 0
STLB Hit, LLC data miss: 0
STLB STLB hints to L2: 0
L1D TOTAL     ACCESS:   23163336  HIT:   22768976  MISS:     394360  HIT %:    98.2975  MISS %:    1.70252   MPKI: 7.8872
L1D LOAD      ACCESS:   15119981  HIT:   14997797  MISS:     122184  HIT %:    99.1919  MISS %:   0.808096   MPKI: 2.44368
L1D RFO       ACCESS:    7812238  HIT:    7741589  MISS:      70649  HIT %:    99.0957  MISS %:   0.904338   MPKI: 1.41298
L1D PREFETCH  ACCESS:     231117  HIT:      29590  MISS:     201527  HIT %:     12.803  MISS %:     87.197   MPKI: 4.03054
AGUS PREFETCH L1 MISS: 0
L1D PREFETCH  REQUESTED:     482730  ISSUED:     462236  USEFUL:     176105  USELESS:      25377
L1D USEFUL LOAD PREFETCHES:     176105 PREFETCH ISSUED TO LOWER LEVEL:     201528  ACCURACY: 87.3849
L1D TIMELY PREFETCHES:     176105 LATE PREFETCHES: 1 DROPPED PREFETCHES: 0
L1D PREFETCHES SAME FILL-ORIGIN LEVEL: 201528 DIFFERENT FILL-ORIGIN LEVEL: 0
L1D AVERAGE MISS LATENCY: 149.471 cycles
L1D RQ	ACCESS:   25727816	FORWARD:          0	MERGED:   10472405	TO_CACHE:   15121721
L1D WQ	ACCESS:    8407615	FORWARD:     133690	MERGED:     548981	TO_CACHE:    7858634
L1D PQ	ACCESS:     231118	FORWARD:          0	MERGED:          0	TO_CACHE:     231118

L1D UNIQUE REGIONS ACCESSED: 0
L1D REGIONS CONFLICTS: 0
L1D Cross Page Prefetch Requests: 1975
L1D Same Page Prefetch Requests: 451893
L1D ROI Sum of L1D PQ occupancy: 3894047
L1D PREFETCHES PUSHED FROM L2C: 0
L1I TOTAL     ACCESS:    9753572  HIT:    9753572  MISS:          0  HIT %:        100  MISS %:          0   MPKI: 0
L1I LOAD      ACCESS:    9753572  HIT:    9753572  MISS:          0  HIT %:        100  MISS %:          0   MPKI: 0
L1I PREFETCH  REQUESTED:          0  ISSUED:          0  USEFUL:          0  USELESS:          0
L1I USEFUL LOAD PREFETCHES:          0 PREFETCH ISSUED TO LOWER LEVEL:          0  ACCURACY: -nan
L1I TIMELY PREFETCHES:          0 LATE PREFETCHES: 0 DROPPED PREFETCHES: 0
L1I PREFETCHES SAME FILL-ORIGIN LEVEL: 0 DIFFERENT FILL-ORIGIN LEVEL: 0
L1I AVERAGE MISS LATENCY: -nan cycles
L1I RQ	ACCESS:   16706094	FORWARD:          0	MERGED:    6952524	TO_CACHE:    9753570

BTB TOTAL     ACCESS:      60897  HIT:      60890  MISS:          7  HIT %:    99.9885  MISS %:  0.0114948   MPKI: 0.00014
BTB BRANCH_DIRECT_JUMP	ACCESS:        502  HIT:        500  MISS:          2
BTB BRANCH_INDIRECT	ACCESS:          0  HIT:          0  MISS:          0
BTB BRANCH_CONDITIONAL	ACCESS:      60395  HIT:      60390  MISS:          5
BTB BRANCH_DIRECT_CALL	ACCESS:          0  HIT:          0  MISS:          0
BTB BRANCH_INDIRECT_CALL	ACCESS:          0  HIT:          0  MISS:          0
BTB BRANCH_RETURN	ACCESS:          0  HIT:          0  MISS:          0
BTB BRANCH_OTHER ACCESS:          0  HIT:          0  MISS:          0

L2C TOTAL     ACCESS:    1394945  HIT:    1144629  MISS:     250316  HIT %:    82.0555  MISS %:    17.9445   MPKI: 5.00632
L2C LOAD      ACCESS:     122183  HIT:      76341  MISS:      45842  HIT %:    62.4809  MISS %:    37.5191   MPKI: 0.91684
L2C DATA LOAD MPKI: 0.91684
L2C INSTRUCTION LOAD MPKI: 0
L2C RFO       ACCESS:      70649  HIT:         14  MISS:      70635  HIT %:  0.0198163  MISS %:    99.9802   MPKI: 1.4127
L2C PREFETCH  ACCESS:     201528  HIT:      68249  MISS:     133279  HIT %:    33.8658  MISS %:    66.1342   MPKI: 2.66558
AGUS PREFETCH L1 MISS: 0
L2C DATA PREFETCH MPKI: 2.66558
L2C INSTRUCTION PREFETCH MPKI: 0
L2C WRITEBACK ACCESS:      73617  HIT:      73542  MISS:         75  HIT %:    99.8981  MISS %:   0.101879   MPKI: 0.0015
L2C LOAD TRANSLATION ACCESS:     926585  HIT:     926131  MISS:        454  HIT %:     99.951  MISS %:  0.0489971   MPKI: 0.00908
L2C TRANSLATION FROM L1D PREFETCHER ACCESS:        383  HIT:        352  MISS:         31  HIT %:     91.906  MISS %:    8.09399   MPKI: 0.00062
L2C PREFETCH  REQUESTED:          0  ISSUED:          0  USEFUL:      43767  USELESS:      89186
L2C USEFUL LOAD PREFETCHES:      43767 PREFETCH ISSUED TO LOWER LEVEL:     133279  ACCURACY: 32.8386
L2C TIMELY PREFETCHES:      43767 LATE PREFETCHES: 0 DROPPED PREFETCHES: 0
L2C PREFETCHES SAME FILL-ORIGIN LEVEL: 0 DIFFERENT FILL-ORIGIN LEVEL: 0
L2C AVERAGE MISS LATENCY: 210.508 cycles
L2C RQ	ACCESS:    1119801	FORWARD:          0	MERGED:          0	TO_CACHE:    1119801
L2C WQ	ACCESS:      73617	FORWARD:          0	MERGED:          0	TO_CACHE:      73617
L2C PQ	ACCESS:     201528	FORWARD:          0	MERGED:          0	TO_CACHE:     201528

L2C Instructions Evicting Data 0
L2C Translations Evicting Data 485
L2C Data Evicting Data 249283
L2C Instructions Evicting Instructions 0
L2C Translations Evicting Instructions 0
L2C Data Evicting Instructions 0
L2C Instructions Evicting Translations 0
L2C Translations Evicting Translations 0
L2C Data Evicting Translations 473
L2C Dense regions hint from L2: 0
PSCL5 TOTAL     ACCESS:     481910  HIT:     481910  MISS:          0  HIT %:        100  MISS %:          0   MPKI: 0
PSCL5 LOAD TRANSLATION ACCESS:     481658  HIT:     481658  MISS:          0  HIT %:        100  MISS %:          0   MPKI: 0
PSCL5 TRANSLATION FROM L1D PREFETCHER ACCESS:        252  HIT:        252  MISS:          0  HIT %:        100  MISS %:          0   MPKI: 0
PSCL5 PREFETCH  REQUESTED:          0  ISSUED:          0  USEFUL:          0  USELESS:          0
PSCL5 USEFUL LOAD PREFETCHES:          0 PREFETCH ISSUED TO LOWER LEVEL:          0  ACCURACY: -nan
PSCL5 TIMELY PREFETCHES:          0 LATE PREFETCHES: 0 DROPPED PREFETCHES: 0
PSCL5 PREFETCHES SAME FILL-ORIGIN LEVEL: 0 DIFFERENT FILL-ORIGIN LEVEL: 0

PSCL4 TOTAL     ACCESS:     481910  HIT:     481910  MISS:          0  HIT %:        100  MISS %:          0   MPKI: 0
PSCL4 LOAD TRANSLATION ACCESS:     481658  HIT:     481658  MISS:          0  HIT %:        100  MISS %:          0   MPKI: 0
PSCL4 TRANSLATION FROM L1D PREFETCHER ACCESS:        252  HIT:        252  MISS:          0  HIT %:        100  MISS %:          0   MPKI: 0
PSCL4 PREFETCH  REQUESTED:          0  ISSUED:          0  USEFUL:          0  USELESS:          0
PSCL4 USEFUL LOAD PREFETCHES:          0 PREFETCH ISSUED TO LOWER LEVEL:          0  ACCURACY: -nan
PSCL4 TIMELY PREFETCHES:          0 LATE PREFETCHES: 0 DROPPED PREFETCHES: 0
PSCL4 PREFETCHES SAME FILL-ORIGIN LEVEL: 0 DIFFERENT FILL-ORIGIN LEVEL: 0

PSCL3 TOTAL     ACCESS:     481910  HIT:     481910  MISS:          0  HIT %:        100  MISS %:          0   MPKI: 0
PSCL3 LOAD TRANSLATION ACCESS:     481658  HIT:     481658  MISS:          0  HIT %:        100  MISS %:          0   MPKI: 0
PSCL3 TRANSLATION FROM L1D PREFETCHER ACCESS:        252  HIT:        252  MISS:          0  HIT %:        100  MISS %:          0   MPKI: 0
PSCL3 PREFETCH  REQUESTED:          0  ISSUED:          0  USEFUL:          0  USELESS:          0
PSCL3 USEFUL LOAD PREFETCHES:          0 PREFETCH ISSUED TO LOWER LEVEL:          0  ACCURACY: -nan
PSCL3 TIMELY PREFETCHES:          0 LATE PREFETCHES: 0 DROPPED PREFETCHES: 0
PSCL3 PREFETCHES SAME FILL-ORIGIN LEVEL: 0 DIFFERENT FILL-ORIGIN LEVEL: 0

PSCL2 TOTAL     ACCESS:     481909  HIT:      36851  MISS:     445058  HIT %:    7.64688  MISS %:    92.3531   MPKI: 8.90116
PSCL2 LOAD TRANSLATION ACCESS:     481788  HIT:      36730  MISS:     445058  HIT %:    7.62369  MISS %:    92.3763   MPKI: 8.90116
PSCL2 TRANSLATION FROM L1D PREFETCHER ACCESS:        121  HIT:        121  MISS:          0  HIT %:        100  MISS %:          0   MPKI: 0
PSCL2 PREFETCH  REQUESTED:          0  ISSUED:          0  USEFUL:          0  USELESS:          0
PSCL2 USEFUL LOAD PREFETCHES:          0 PREFETCH ISSUED TO LOWER LEVEL:          0  ACCURACY: -nan
PSCL2 TIMELY PREFETCHES:          0 LATE PREFETCHES: 0 DROPPED PREFETCHES: 0
PSCL2 PREFETCHES SAME FILL-ORIGIN LEVEL: 0 DIFFERENT FILL-ORIGIN LEVEL: 0

LLC TOTAL     ACCESS:     320976  HIT:      70666  MISS:     250310  HIT %:     22.016  MISS %:     77.984   MPKI: 5.0062
LLC LOAD      ACCESS:      45842  HIT:         15  MISS:      45827  HIT %:  0.0327211  MISS %:    99.9673   MPKI: 0.91654
LLC RFO       ACCESS:      70635  HIT:          1  MISS:      70634  HIT %: 0.00141573  MISS %:    99.9986   MPKI: 1.41268
LLC PREFETCH  ACCESS:     133279  HIT:          4  MISS:     133275  HIT %: 0.00300122  MISS %:     99.997   MPKI: 2.6655
AGUS PREFETCH L1 MISS: 0
LLC WRITEBACK ACCESS:      70735  HIT:      70646  MISS:         89  HIT %:    99.8742  MISS %:   0.125822   MPKI: 0.00178
LLC LOAD TRANSLATION ACCESS:        454  HIT:          0  MISS:        454  HIT %:          0  MISS %:        100   MPKI: 0.00908
LLC TRANSLATION FROM L1D PREFETCHER ACCESS:         31  HIT:          0  MISS:         31  HIT %:          0  MISS %:        100   MPKI: 0.00062
LLC PREFETCH  REQUESTED:          0  ISSUED:          0  USEFUL:          1  USELESS:     131673
LLC USEFUL LOAD PREFETCHES:          1 PREFETCH ISSUED TO LOWER LEVEL:     133275  ACCURACY: 0.000750328
LLC TIMELY PREFETCHES:          1 LATE PREFETCHES: 0 DROPPED PREFETCHES: 0
LLC PREFETCHES SAME FILL-ORIGIN LEVEL: 0 DIFFERENT FILL-ORIGIN LEVEL: 0
LLC AVERAGE MISS LATENCY: 180.12 cycles
LLC RQ	ACCESS:     116962	FORWARD:          0	MERGED:          0	TO_CACHE:     116962
LLC WQ	ACCESS:      70735	FORWARD:          0	MERGED:          0	TO_CACHE:      70735
LLC PQ	ACCESS:     133279	FORWARD:          0	MERGED:          0	TO_CACHE:     133279

LLC Dense regions hint to LLC: 0

RAW hits: 3302853
Loads Generated: 29030685
Loads sent to L1D: 25727816
Stores Generated: 8407608
Stores sent to L1D: 8407615
Major fault: 0 Minor fault: 4630
Allocated PAGES: 4630

stream: 
stream:times selected: 87676
stream:pref_filled: 378279
stream:pref_useful: 345842
stream:pref_late: 0
stream:misses: 4448
stream:misses_by_poll: 0

CS: 
CS:times selected: 9444
CS:pref_filled: 6730
CS:pref_useful: 3703
CS:pref_late: 0
CS:misses: 5643
CS:misses_by_poll: 10

CPLX: 
CPLX:times selected: 78023
CPLX:pref_filled: 3524
CPLX:pref_useful: 1964
CPLX:pref_late: 0
CPLX:misses: 28418
CPLX:misses_by_poll: 2

ISB: 
ISB:times selected:24449
ISB:pref_filled: 8777
ISB:pref_useful: 2905
ISB:pref_late: 2
ISB:misses: 11745
ISB:misses_by_poll: 10

NL_L1: 
NL:times selected: 142
NL:pref_filled: 130
NL:pref_useful: 130
NL:pref_late: 0
NL:misses: 110
NL:misses_by_poll: 0

total selections: 199734
total_filled: 201527
total_useful: 176105
total_late: 2
total_polluted: 22
total_misses_after_warmup: 123917
conflicts: 71531

test: 5776
ISB Prefetcher final stats
Training Unit Size: 87
Addr table size: 61243 61244


Triggers: 87683
No Prediction: 63234 72.1166
Stream end: 5910
No translation: 5914999 6745.89
Predictions: 14321 16.3327


Stream divergence: 17172 19.5842
Stream divergence -- new stream: 0

DRAM Statistics
 CHANNEL 0
 RQ ROW_BUFFER_HIT:      52589  ROW_BUFFER_MISS:     197632
 DBUS_CONGESTED:        154
 WQ ROW_BUFFER_HIT:      10921  ROW_BUFFER_MISS:      61359  FULL:          0

 AVG_CONGESTED_CYCLE: 4
 All warmup complete: 2
Channel 0 Bank busy for read cycles: 0
Channel 0 Bank busy for write cycles: 0
Channel 0
Rank 0
0banks busy for read cycles: 49248563
0banks busy for write cycles: 14650
1banks busy for read cycles: 6269381
1banks busy for write cycles: 1568480
2banks busy for read cycles: 1559303
2banks busy for write cycles: 620895
3banks busy for read cycles: 861444
3banks busy for write cycles: 396376
4banks busy for read cycles: 646007
4banks busy for write cycles: 243827
5banks busy for read cycles: 442519
5banks busy for write cycles: 197751
6banks busy for read cycles: 685979
6banks busy for write cycles: 242779
7banks busy for read cycles: 1143555
7banks busy for write cycles: 380069
8banks busy for read cycles: 430161
8banks busy for write cycles: 499593

CPU 0 Branch Prediction Accuracy: 99.1743% MPKI: 0.01016 Average ROB Occupancy at Mispredict: 246.161
Branch types
NOT_BRANCH: 49938478 99.877%
BRANCH_DIRECT_JUMP: 502 0.001004%
BRANCH_INDIRECT: 0 0%
BRANCH_CONDITIONAL: 61022 0.122044%
BRANCH_DIRECT_CALL: 0 0%
BRANCH_INDIRECT_CALL: 0 0%
BRANCH_RETURN: 0 0%
BRANCH_OTHER: 0 0%

DRAM PAGES: 1048576
Allocated PAGES: 4630
