
*** ChampSim Multicore Out-of-Order Simulator ***

Warmup Instructions: 50000000
Simulation Instructions: 50000000
Number of CPUs: 1
LLC sets: 2048
LLC ways: 16
Off-chip DRAM Size: 4096 MB Channels: 1 Width: 64-bit Data Rate: 6400 MT/s
CPU 0 runs ./traces/SPEC-CPU2017/462.libquantum-714B.champsimtrace.xz
.xz
CPU 0 Bimodal branch predictor
BTB has LRU replacement policy
ITLB has LRU replacement policy
DTLB has LRU replacement policy
STLB has LRU replacement policy
L1I has LRU replacement policy
L1D has LRU replacement policy
L2C has LRU replacement policy
LLC has LRU replacement policy
Heartbeat CPU 0 instructions: 10000001 cycles: 3582958 heartbeat IPC: 2.79099 cumulative IPC: 2.79099 (Simulation time: 0 hr 0 min 25 sec) 
Heartbeat CPU 0 instructions: 20000000 cycles: 6916289 heartbeat IPC: 3 cumulative IPC: 2.89172 (Simulation time: 0 hr 0 min 56 sec) 
Heartbeat CPU 0 instructions: 30000000 cycles: 10460603 heartbeat IPC: 2.82142 cumulative IPC: 2.8679 (Simulation time: 0 hr 1 min 22 sec) 
Heartbeat CPU 0 instructions: 40000000 cycles: 14091809 heartbeat IPC: 2.75391 cumulative IPC: 2.83853 (Simulation time: 0 hr 1 min 46 sec) 
Heartbeat CPU 0 instructions: 50000000 cycles: 17725050 heartbeat IPC: 2.75236 cumulative IPC: 2.82087 (Simulation time: 0 hr 2 min 11 sec) 

Warmup complete CPU 0 instructions: 50000004 cycles: 17725051 (Simulation time: 0 hr 2 min 11 sec) 

Heartbeat CPU 0 instructions: 60000000 cycles: 27767861 heartbeat IPC: 0.995737 cumulative IPC: 0.995737 (Simulation time: 0 hr 2 min 55 sec) 
Heartbeat CPU 0 instructions: 70000000 cycles: 37962742 heartbeat IPC: 0.980884 cumulative IPC: 0.988255 (Simulation time: 0 hr 3 min 40 sec) 
Heartbeat CPU 0 instructions: 80000000 cycles: 53170024 heartbeat IPC: 0.65758 cumulative IPC: 0.846382 (Simulation time: 0 hr 4 min 45 sec) 
Heartbeat CPU 0 instructions: 90000000 cycles: 65699216 heartbeat IPC: 0.798136 cumulative IPC: 0.833782 (Simulation time: 0 hr 5 min 39 sec) 
Heartbeat CPU 0 instructions: 100000000 cycles: 76335420 heartbeat IPC: 0.940185 cumulative IPC: 0.853091 (Simulation time: 0 hr 6 min 26 sec) 
Finished CPU 0 instructions: 50000002 cycles: 58610388 cumulative IPC: 0.853091 (Simulation time: 0 hr 6 min 26 sec) 

ChampSim completed all CPUs

Region of Interest Statistics

CPU 0 cumulative IPC: 0.853091 instructions: 50000002 cycles: 58610388
ITLB TOTAL     ACCESS:    9979571  HIT:    9979571  MISS:          0  HIT %:        100  MISS %:          0   MPKI: 0
ITLB LOAD TRANSLATION ACCESS:    9979571  HIT:    9979571  MISS:          0  HIT %:        100  MISS %:          0   MPKI: 0
ITLB PREFETCH  REQUESTED:          0  ISSUED:          0  USEFUL:          0  USELESS:          0
ITLB USEFUL LOAD PREFETCHES:          0 PREFETCH ISSUED TO LOWER LEVEL:          0  ACCURACY: -nan
ITLB TIMELY PREFETCHES:          0 LATE PREFETCHES: 0 DROPPED PREFETCHES: 0
ITLB PREFETCHES SAME FILL-ORIGIN LEVEL: 0 DIFFERENT FILL-ORIGIN LEVEL: 0
ITLB AVERAGE MISS LATENCY: -nan cycles
ITLB RQ	ACCESS:   11040352	FORWARD:          0	MERGED:    1060782	TO_CACHE:    9979570

DTLB TOTAL     ACCESS:    6324563  HIT:    6303832  MISS:      20731  HIT %:    99.6722  MISS %:   0.327785   MPKI: 0.41462
DTLB LOAD TRANSLATION ACCESS:    6324563  HIT:    6303832  MISS:      20731  HIT %:    99.6722  MISS %:   0.327785   MPKI: 0.41462
DTLB PREFETCH  REQUESTED:          0  ISSUED:          0  USEFUL:          0  USELESS:          0
DTLB USEFUL LOAD PREFETCHES:          0 PREFETCH ISSUED TO LOWER LEVEL:          0  ACCURACY: -nan
DTLB TIMELY PREFETCHES:          0 LATE PREFETCHES: 0 DROPPED PREFETCHES: 0
DTLB PREFETCHES SAME FILL-ORIGIN LEVEL: 0 DIFFERENT FILL-ORIGIN LEVEL: 0
DTLB AVERAGE MISS LATENCY: 22.7491 cycles
DTLB RQ	ACCESS:    7585760	FORWARD:          0	MERGED:    1251067	TO_CACHE:    6334693

STLB TOTAL     ACCESS:     354589  HIT:     333859  MISS:      20730  HIT %:    94.1538  MISS %:    5.84621   MPKI: 0.4146
STLB LOAD TRANSLATION ACCESS:      20731  HIT:      14522  MISS:       6209  HIT %:    70.0497  MISS %:    29.9503   MPKI: 0.12418
STLB TRANSLATION FROM L1D PREFETCHER ACCESS:     333858  HIT:     319337  MISS:      14521  HIT %:    95.6505  MISS %:    4.34945   MPKI: 0.29042
STLB PREFETCH  REQUESTED:          0  ISSUED:          0  USEFUL:      14522  USELESS:          0
STLB USEFUL LOAD PREFETCHES:      14522 PREFETCH ISSUED TO LOWER LEVEL:          0  ACCURACY: inf
STLB TIMELY PREFETCHES:      14522 LATE PREFETCHES: 188 DROPPED PREFETCHES: 0
STLB PREFETCHES SAME FILL-ORIGIN LEVEL: 0 DIFFERENT FILL-ORIGIN LEVEL: 0
STLB AVERAGE MISS LATENCY: 53.7022 cycles
STLB RQ	ACCESS:    1438337	FORWARD:          0	MERGED:    1082386	TO_CACHE:     355951

STLB Hit, L1D data hit: 0
STLB Hit, L2C data hit: 0
STLB Hit, LLC data hit: 0
STLB Hit, LLC data miss: 0
STLB STLB hints to L2: 0
L1D TOTAL     ACCESS:    8236201  HIT:    6909691  MISS:    1326510  HIT %:    83.8942  MISS %:    16.1058   MPKI: 26.5302
L1D LOAD      ACCESS:    5006593  HIT:    4628500  MISS:     378093  HIT %:    92.4481  MISS %:     7.5519   MPKI: 7.56186
L1D RFO       ACCESS:    2108692  HIT:    2108684  MISS:          8  HIT %:    99.9996  MISS %: 0.000379382   MPKI: 0.00016
L1D PREFETCH  ACCESS:    1120916  HIT:     172507  MISS:     948409  HIT %:    15.3898  MISS %:    84.6102   MPKI: 18.9682
AGUS PREFETCH L1 MISS: 0
L1D PREFETCH  REQUESTED:    3183359  ISSUED:    2853084  USEFUL:     948401  USELESS:          6
L1D USEFUL LOAD PREFETCHES:     948401 PREFETCH ISSUED TO LOWER LEVEL:    1115823  ACCURACY: 84.9956
L1D TIMELY PREFETCHES:     948401 LATE PREFETCHES: 167414 DROPPED PREFETCHES: 0
L1D PREFETCHES SAME FILL-ORIGIN LEVEL: 1115823 DIFFERENT FILL-ORIGIN LEVEL: 0
L1D AVERAGE MISS LATENCY: 189.814 cycles
L1D RQ	ACCESS:   15917877	FORWARD:          0	MERGED:   10440821	TO_CACHE:    5477052
L1D WQ	ACCESS:    2108708	FORWARD:          4	MERGED:          0	TO_CACHE:    2108708
L1D PQ	ACCESS:    1435478	FORWARD:          0	MERGED:      17872	TO_CACHE:    1417606

L1D UNIQUE REGIONS ACCESSED: 0
L1D REGIONS CONFLICTS: 0
L1D Cross Page Prefetch Requests: 88085
L1D Same Page Prefetch Requests: 2511507
L1D ROI Sum of L1D PQ occupancy: 25717096
L1D PREFETCHES PUSHED FROM L2C: 0
L1I TOTAL     ACCESS:   11040351  HIT:   11040351  MISS:          0  HIT %:        100  MISS %:          0   MPKI: 0
L1I LOAD      ACCESS:   11040351  HIT:   11040351  MISS:          0  HIT %:        100  MISS %:          0   MPKI: 0
L1I PREFETCH  REQUESTED:          0  ISSUED:          0  USEFUL:          0  USELESS:          0
L1I USEFUL LOAD PREFETCHES:          0 PREFETCH ISSUED TO LOWER LEVEL:          0  ACCURACY: -nan
L1I TIMELY PREFETCHES:          0 LATE PREFETCHES: 0 DROPPED PREFETCHES: 0
L1I PREFETCHES SAME FILL-ORIGIN LEVEL: 0 DIFFERENT FILL-ORIGIN LEVEL: 0
L1I AVERAGE MISS LATENCY: -nan cycles
L1I RQ	ACCESS:   18109591	FORWARD:          0	MERGED:    7069239	TO_CACHE:   11040352

BTB TOTAL     ACCESS:    8514769  HIT:    8514746  MISS:         23  HIT %:    99.9997  MISS %: 0.000270119   MPKI: 0.00046
BTB BRANCH_DIRECT_JUMP	ACCESS:          0  HIT:          0  MISS:          0
BTB BRANCH_INDIRECT	ACCESS:          2  HIT:          1  MISS:          1
BTB BRANCH_CONDITIONAL	ACCESS:    8514747  HIT:    8514743  MISS:          4
BTB BRANCH_DIRECT_CALL	ACCESS:         10  HIT:          1  MISS:          9
BTB BRANCH_INDIRECT_CALL	ACCESS:          0  HIT:          0  MISS:          0
BTB BRANCH_RETURN	ACCESS:         10  HIT:          1  MISS:          9
BTB BRANCH_OTHER ACCESS:          0  HIT:          0  MISS:          0

L2C TOTAL     ACCESS:    1883029  HIT:     553924  MISS:    1329105  HIT %:    29.4166  MISS %:    70.5834   MPKI: 26.5821
L2C LOAD      ACCESS:     210679  HIT:          0  MISS:     210679  HIT %:          0  MISS %:        100   MPKI: 4.21358
L2C DATA LOAD MPKI: 4.21358
L2C INSTRUCTION LOAD MPKI: 0
L2C RFO       ACCESS:          8  HIT:          0  MISS:          8  HIT %:          0  MISS %:        100   MPKI: 0.00016
L2C PREFETCH  ACCESS:    1115823  HIT:          0  MISS:    1115823  HIT %:          0  MISS %:        100   MPKI: 22.3165
AGUS PREFETCH L1 MISS: 0
L2C DATA PREFETCH MPKI: 22.3165
L2C INSTRUCTION PREFETCH MPKI: 0
L2C WRITEBACK ACCESS:     535789  HIT:     535789  MISS:          0  HIT %:        100  MISS %:          0   MPKI: 0
L2C LOAD TRANSLATION ACCESS:       6021  HIT:       5261  MISS:        760  HIT %:    87.3775  MISS %:    12.6225   MPKI: 0.0152
L2C TRANSLATION FROM L1D PREFETCHER ACCESS:      14709  HIT:      12874  MISS:       1835  HIT %:    87.5246  MISS %:    12.4754   MPKI: 0.0367
L2C PREFETCH  REQUESTED:          0  ISSUED:          0  USEFUL:       1835  USELESS:    1115650
L2C USEFUL LOAD PREFETCHES:       1835 PREFETCH ISSUED TO LOWER LEVEL:    1115823  ACCURACY: 0.164453
L2C TIMELY PREFETCHES:       1835 LATE PREFETCHES: 0 DROPPED PREFETCHES: 0
L2C PREFETCHES SAME FILL-ORIGIN LEVEL: 0 DIFFERENT FILL-ORIGIN LEVEL: 0
L2C AVERAGE MISS LATENCY: 174.247 cycles
L2C RQ	ACCESS:     231417	FORWARD:          0	MERGED:          0	TO_CACHE:     231417
L2C WQ	ACCESS:     535789	FORWARD:          0	MERGED:          0	TO_CACHE:     535789
L2C PQ	ACCESS:    1115823	FORWARD:          0	MERGED:          0	TO_CACHE:    1115823

L2C Instructions Evicting Data 0
L2C Translations Evicting Data 2595
L2C Data Evicting Data 1323913
L2C Instructions Evicting Instructions 0
L2C Translations Evicting Instructions 0
L2C Data Evicting Instructions 0
L2C Instructions Evicting Translations 0
L2C Translations Evicting Translations 0
L2C Data Evicting Translations 2597
L2C Dense regions hint from L2: 0
PSCL5 TOTAL     ACCESS:      20730  HIT:      20730  MISS:          0  HIT %:        100  MISS %:          0   MPKI: 0
PSCL5 LOAD TRANSLATION ACCESS:       6021  HIT:       6021  MISS:          0  HIT %:        100  MISS %:          0   MPKI: 0
PSCL5 TRANSLATION FROM L1D PREFETCHER ACCESS:      14709  HIT:      14709  MISS:          0  HIT %:        100  MISS %:          0   MPKI: 0
PSCL5 PREFETCH  REQUESTED:          0  ISSUED:          0  USEFUL:          0  USELESS:          0
PSCL5 USEFUL LOAD PREFETCHES:          0 PREFETCH ISSUED TO LOWER LEVEL:          0  ACCURACY: -nan
PSCL5 TIMELY PREFETCHES:          0 LATE PREFETCHES: 0 DROPPED PREFETCHES: 0
PSCL5 PREFETCHES SAME FILL-ORIGIN LEVEL: 0 DIFFERENT FILL-ORIGIN LEVEL: 0

PSCL4 TOTAL     ACCESS:      20730  HIT:      20730  MISS:          0  HIT %:        100  MISS %:          0   MPKI: 0
PSCL4 LOAD TRANSLATION ACCESS:       6021  HIT:       6021  MISS:          0  HIT %:        100  MISS %:          0   MPKI: 0
PSCL4 TRANSLATION FROM L1D PREFETCHER ACCESS:      14709  HIT:      14709  MISS:          0  HIT %:        100  MISS %:          0   MPKI: 0
PSCL4 PREFETCH  REQUESTED:          0  ISSUED:          0  USEFUL:          0  USELESS:          0
PSCL4 USEFUL LOAD PREFETCHES:          0 PREFETCH ISSUED TO LOWER LEVEL:          0  ACCURACY: -nan
PSCL4 TIMELY PREFETCHES:          0 LATE PREFETCHES: 0 DROPPED PREFETCHES: 0
PSCL4 PREFETCHES SAME FILL-ORIGIN LEVEL: 0 DIFFERENT FILL-ORIGIN LEVEL: 0

PSCL3 TOTAL     ACCESS:      20730  HIT:      20730  MISS:          0  HIT %:        100  MISS %:          0   MPKI: 0
PSCL3 LOAD TRANSLATION ACCESS:       6021  HIT:       6021  MISS:          0  HIT %:        100  MISS %:          0   MPKI: 0
PSCL3 TRANSLATION FROM L1D PREFETCHER ACCESS:      14709  HIT:      14709  MISS:          0  HIT %:        100  MISS %:          0   MPKI: 0
PSCL3 PREFETCH  REQUESTED:          0  ISSUED:          0  USEFUL:          0  USELESS:          0
PSCL3 USEFUL LOAD PREFETCHES:          0 PREFETCH ISSUED TO LOWER LEVEL:          0  ACCURACY: -nan
PSCL3 TIMELY PREFETCHES:          0 LATE PREFETCHES: 0 DROPPED PREFETCHES: 0
PSCL3 PREFETCHES SAME FILL-ORIGIN LEVEL: 0 DIFFERENT FILL-ORIGIN LEVEL: 0

PSCL2 TOTAL     ACCESS:      20730  HIT:      20730  MISS:          0  HIT %:        100  MISS %:          0   MPKI: 0
PSCL2 LOAD TRANSLATION ACCESS:       6021  HIT:       6021  MISS:          0  HIT %:        100  MISS %:          0   MPKI: 0
PSCL2 TRANSLATION FROM L1D PREFETCHER ACCESS:      14709  HIT:      14709  MISS:          0  HIT %:        100  MISS %:          0   MPKI: 0
PSCL2 PREFETCH  REQUESTED:          0  ISSUED:          0  USEFUL:          0  USELESS:          0
PSCL2 USEFUL LOAD PREFETCHES:          0 PREFETCH ISSUED TO LOWER LEVEL:          0  ACCURACY: -nan
PSCL2 TIMELY PREFETCHES:          0 LATE PREFETCHES: 0 DROPPED PREFETCHES: 0
PSCL2 PREFETCHES SAME FILL-ORIGIN LEVEL: 0 DIFFERENT FILL-ORIGIN LEVEL: 0

LLC TOTAL     ACCESS:    1864663  HIT:     535558  MISS:    1329105  HIT %:    28.7214  MISS %:    71.2786   MPKI: 26.5821
LLC LOAD      ACCESS:     210679  HIT:          0  MISS:     210679  HIT %:          0  MISS %:        100   MPKI: 4.21358
LLC RFO       ACCESS:          8  HIT:          0  MISS:          8  HIT %:          0  MISS %:        100   MPKI: 0.00016
LLC PREFETCH  ACCESS:    1115823  HIT:          0  MISS:    1115823  HIT %:          0  MISS %:        100   MPKI: 22.3165
AGUS PREFETCH L1 MISS: 0
LLC WRITEBACK ACCESS:     535558  HIT:     535558  MISS:          0  HIT %:        100  MISS %:          0   MPKI: 0
LLC LOAD TRANSLATION ACCESS:        760  HIT:          0  MISS:        760  HIT %:          0  MISS %:        100   MPKI: 0.0152
LLC TRANSLATION FROM L1D PREFETCHER ACCESS:       1835  HIT:          0  MISS:       1835  HIT %:          0  MISS %:        100   MPKI: 0.0367
LLC PREFETCH  REQUESTED:          0  ISSUED:          0  USEFUL:          0  USELESS:    1116918
LLC USEFUL LOAD PREFETCHES:          0 PREFETCH ISSUED TO LOWER LEVEL:    1115823  ACCURACY: 0
LLC TIMELY PREFETCHES:          0 LATE PREFETCHES: 0 DROPPED PREFETCHES: 0
LLC PREFETCHES SAME FILL-ORIGIN LEVEL: 0 DIFFERENT FILL-ORIGIN LEVEL: 0
LLC AVERAGE MISS LATENCY: 144.247 cycles
LLC RQ	ACCESS:     213282	FORWARD:          0	MERGED:          0	TO_CACHE:     213282
LLC WQ	ACCESS:     535558	FORWARD:          0	MERGED:          0	TO_CACHE:     535558
LLC PQ	ACCESS:    1115823	FORWARD:          0	MERGED:          0	TO_CACHE:    1115823

LLC Dense regions hint to LLC: 0

RAW hits: 4
Loads Generated: 15917885
Loads sent to L1D: 15917877
Stores Generated: 2108708
Stores sent to L1D: 2108708
Major fault: 0 Minor fault: 8227
Allocated PAGES: 8227

stream: 
stream:times selected: 633925
stream:pref_filled: 1557187
stream:pref_useful: 1557169
stream:pref_late: 162442
stream:misses: 43200
stream:misses_by_poll: 0

CS: 
CS:times selected: 81356
CS:pref_filled: 66489
CS:pref_useful: 66489
CS:pref_late: 46
CS:misses: 75420
CS:misses_by_poll: 3

CPLX: 
CPLX:times selected: 552460
CPLX:pref_filled: 157300
CPLX:pref_useful: 157298
CPLX:pref_late: 1583
CPLX:misses: 577916
CPLX:misses_by_poll: 804

ISB: 
ISB:times selected:227140
ISB:pref_filled: 303747
ISB:pref_useful: 303743
ISB:pref_late: 2705
ISB:misses: 395174
ISB:misses_by_poll: 2517

NL_L1: 
NL:times selected: 259
NL:pref_filled: 203
NL:pref_useful: 203
NL:pref_late: 10
NL:misses: 424
NL:misses_by_poll: 0

total selections: 1495140
total_filled: 948409
total_useful: 948401
total_late: 167597
total_polluted: 3324
total_misses_after_warmup: 848551
conflicts: 9

test: 41137
ISB Prefetcher final stats
Training Unit Size: 2
Addr table size: 396436 396436


Triggers: 633926
No Prediction: 406786 64.1693
Stream end: 152464
No translation: 154828169 24423.7
Predictions: 370157 58.3912


Stream divergence: 171010 26.9763
Stream divergence -- new stream: 0

DRAM Statistics
 CHANNEL 0
 RQ ROW_BUFFER_HIT:     905882  ROW_BUFFER_MISS:     423223
 DBUS_CONGESTED:        104
 WQ ROW_BUFFER_HIT:     218501  ROW_BUFFER_MISS:     316290  FULL:          0

 AVG_CONGESTED_CYCLE: 5
 All warmup complete: 2
Channel 0 Bank busy for read cycles: 0
Channel 0 Bank busy for write cycles: 0
Channel 0
Rank 0
0banks busy for read cycles: 21407602
0banks busy for write cycles: 11938
1banks busy for read cycles: 5777087
1banks busy for write cycles: 1737412
2banks busy for read cycles: 2963016
2banks busy for write cycles: 95475
3banks busy for read cycles: 2030936
3banks busy for write cycles: 95885
4banks busy for read cycles: 1912392
4banks busy for write cycles: 101020
5banks busy for read cycles: 2429588
5banks busy for write cycles: 123265
6banks busy for read cycles: 3323402
6banks busy for write cycles: 167606
7banks busy for read cycles: 3850239
7banks busy for write cycles: 752191
8banks busy for read cycles: 3111985
8banks busy for write cycles: 8719350

CPU 0 Branch Prediction Accuracy: 99.8647% MPKI: 0.2304 Average ROB Occupancy at Mispredict: 81.8365
Branch types
NOT_BRANCH: 41485265 82.9705%
BRANCH_DIRECT_JUMP: 0 0%
BRANCH_INDIRECT: 2 4e-06%
BRANCH_CONDITIONAL: 8514761 17.0295%
BRANCH_DIRECT_CALL: 10 2e-05%
BRANCH_INDIRECT_CALL: 0 0%
BRANCH_RETURN: 10 2e-05%
BRANCH_OTHER: 0 0%

DRAM PAGES: 1048576
Allocated PAGES: 8227
