
*** ChampSim Multicore Out-of-Order Simulator ***

Warmup Instructions: 50000000
Simulation Instructions: 50000000
Number of CPUs: 1
LLC sets: 2048
LLC ways: 16
Off-chip DRAM Size: 4096 MB Channels: 1 Width: 64-bit Data Rate: 6400 MT/s
CPU 0 runs ./traces/SPEC-CPU2017/462.libquantum-714B.champsimtrace.xz
.xz
CPU 0 Bimodal branch predictor
BTB has LRU replacement policy
ITLB has LRU replacement policy
DTLB has LRU replacement policy
STLB has LRU replacement policy
L1I has LRU replacement policy
L1D has LRU replacement policy
L2C has LRU replacement policy
LLC has LRU replacement policy
Heartbeat CPU 0 instructions: 10000001 cycles: 3582958 heartbeat IPC: 2.79099 cumulative IPC: 2.79099 (Simulation time: 0 hr 3 min 19 sec) 
Heartbeat CPU 0 instructions: 20000000 cycles: 6916288 heartbeat IPC: 3 cumulative IPC: 2.89172 (Simulation time: 0 hr 6 min 30 sec) 
Heartbeat CPU 0 instructions: 30000000 cycles: 10460603 heartbeat IPC: 2.82142 cumulative IPC: 2.8679 (Simulation time: 0 hr 9 min 48 sec) 
Heartbeat CPU 0 instructions: 40000000 cycles: 14091809 heartbeat IPC: 2.75391 cumulative IPC: 2.83853 (Simulation time: 0 hr 13 min 9 sec) 
Heartbeat CPU 0 instructions: 50000000 cycles: 17725050 heartbeat IPC: 2.75236 cumulative IPC: 2.82087 (Simulation time: 0 hr 16 min 28 sec) 

Warmup complete CPU 0 instructions: 50000004 cycles: 17725051 (Simulation time: 0 hr 16 min 28 sec) 

Heartbeat CPU 0 instructions: 60000000 cycles: 27789675 heartbeat IPC: 0.993579 cumulative IPC: 0.993579 (Simulation time: 0 hr 17 min 2 sec) 
Heartbeat CPU 0 instructions: 70000000 cycles: 38012544 heartbeat IPC: 0.978199 cumulative IPC: 0.985829 (Simulation time: 0 hr 17 min 35 sec) 
Heartbeat CPU 0 instructions: 80000000 cycles: 53256000 heartbeat IPC: 0.656019 cumulative IPC: 0.844334 (Simulation time: 0 hr 18 min 22 sec) 
Heartbeat CPU 0 instructions: 90000000 cycles: 65622508 heartbeat IPC: 0.808636 cumulative IPC: 0.835117 (Simulation time: 0 hr 19 min 1 sec) 
Heartbeat CPU 0 instructions: 100000000 cycles: 76033918 heartbeat IPC: 0.960485 cumulative IPC: 0.857502 (Simulation time: 0 hr 19 min 35 sec) 
Finished CPU 0 instructions: 50000002 cycles: 58308886 cumulative IPC: 0.857502 (Simulation time: 0 hr 19 min 35 sec) 

ChampSim completed all CPUs

Region of Interest Statistics

CPU 0 cumulative IPC: 0.857502 instructions: 50000002 cycles: 58308886
ITLB TOTAL     ACCESS:    9985024  HIT:    9985024  MISS:          0  HIT %:        100  MISS %:          0   MPKI: 0
ITLB LOAD TRANSLATION ACCESS:    9985024  HIT:    9985024  MISS:          0  HIT %:        100  MISS %:          0   MPKI: 0
ITLB PREFETCH  REQUESTED:          0  ISSUED:          0  USEFUL:          0  USELESS:          0
ITLB USEFUL LOAD PREFETCHES:          0 PREFETCH ISSUED TO LOWER LEVEL:          0  ACCURACY: -nan
ITLB TIMELY PREFETCHES:          0 LATE PREFETCHES: 0 DROPPED PREFETCHES: 0
ITLB PREFETCHES SAME FILL-ORIGIN LEVEL: 0 DIFFERENT FILL-ORIGIN LEVEL: 0
ITLB AVERAGE MISS LATENCY: -nan cycles
ITLB RQ	ACCESS:   11045961	FORWARD:          0	MERGED:    1060938	TO_CACHE:    9985023

DTLB TOTAL     ACCESS:    6906438  HIT:    6885707  MISS:      20731  HIT %:    99.6998  MISS %:   0.300169   MPKI: 0.41462
DTLB LOAD TRANSLATION ACCESS:    6906438  HIT:    6885707  MISS:      20731  HIT %:    99.6998  MISS %:   0.300169   MPKI: 0.41462
DTLB PREFETCH  REQUESTED:          0  ISSUED:          0  USEFUL:          0  USELESS:          0
DTLB USEFUL LOAD PREFETCHES:          0 PREFETCH ISSUED TO LOWER LEVEL:          0  ACCURACY: -nan
DTLB TIMELY PREFETCHES:          0 LATE PREFETCHES: 0 DROPPED PREFETCHES: 0
DTLB PREFETCHES SAME FILL-ORIGIN LEVEL: 0 DIFFERENT FILL-ORIGIN LEVEL: 0
DTLB AVERAGE MISS LATENCY: 53.0999 cycles
DTLB RQ	ACCESS:    8192376	FORWARD:          0	MERGED:    1259247	TO_CACHE:    6933129

STLB TOTAL     ACCESS:    1024430  HIT:    1003699  MISS:      20731  HIT %:    97.9763  MISS %:    2.02366   MPKI: 0.41462
STLB LOAD TRANSLATION ACCESS:      20731  HIT:          0  MISS:      20731  HIT %:          0  MISS %:        100   MPKI: 0.41462
STLB TRANSLATION FROM L1D PREFETCHER ACCESS:    1003699  HIT:    1003699  MISS:          0  HIT %:        100  MISS %:          0   MPKI: 0
STLB PREFETCH  REQUESTED:          0  ISSUED:          0  USEFUL:          0  USELESS:          0
STLB USEFUL LOAD PREFETCHES:          0 PREFETCH ISSUED TO LOWER LEVEL:          0  ACCURACY: -nan
STLB TIMELY PREFETCHES:          0 LATE PREFETCHES: 0 DROPPED PREFETCHES: 0
STLB PREFETCHES SAME FILL-ORIGIN LEVEL: 0 DIFFERENT FILL-ORIGIN LEVEL: 0
STLB AVERAGE MISS LATENCY: 44.0999 cycles
STLB RQ	ACCESS:    1358595	FORWARD:          0	MERGED:     334165	TO_CACHE:    1024430

STLB Hit, L1D data hit: 0
STLB Hit, L2C data hit: 0
STLB Hit, LLC data hit: 0
STLB Hit, LLC data miss: 0
STLB STLB hints to L2: 0
L1D TOTAL     ACCESS:    9194238  HIT:    7867722  MISS:    1326516  HIT %:    85.5723  MISS %:    14.4277   MPKI: 26.5303
L1D LOAD      ACCESS:    5961314  HIT:    5719880  MISS:     241434  HIT %:      95.95  MISS %:    4.05001   MPKI: 4.82868
L1D RFO       ACCESS:    2108692  HIT:    2108684  MISS:          8  HIT %:    99.9996  MISS %: 0.000379382   MPKI: 0.00016
L1D PREFETCH  ACCESS:    1124232  HIT:      39158  MISS:    1085074  HIT %:    3.48309  MISS %:    96.5169   MPKI: 21.7015
AGUS PREFETCH L1 MISS: 0
L1D PREFETCH  REQUESTED:    2687631  ISSUED:    2675728  USEFUL:    1085060  USELESS:         12
L1D USEFUL LOAD PREFETCHES:    1085060 PREFETCH ISSUED TO LOWER LEVEL:    1263613  ACCURACY: 85.8696
L1D TIMELY PREFETCHES:    1085060 LATE PREFETCHES: 178537 DROPPED PREFETCHES: 0
L1D PREFETCHES SAME FILL-ORIGIN LEVEL: 1263613 DIFFERENT FILL-ORIGIN LEVEL: 0
L1D AVERAGE MISS LATENCY: 186.451 cycles
L1D RQ	ACCESS:   15917870	FORWARD:          0	MERGED:    9834199	TO_CACHE:    6083668
L1D WQ	ACCESS:    2108708	FORWARD:          3	MERGED:          0	TO_CACHE:    2108708
L1D PQ	ACCESS:    1337864	FORWARD:          0	MERGED:          0	TO_CACHE:    1337864

L1D UNIQUE REGIONS ACCESSED: 0
L1D REGIONS CONFLICTS: 0
L1D Cross Page Prefetch Requests: 0
L1D Same Page Prefetch Requests: 2777021
L1D ROI Sum of L1D PQ occupancy: 17183357
L1D PREFETCHES PUSHED FROM L2C: 0
L1I TOTAL     ACCESS:   11045961  HIT:   11045961  MISS:          0  HIT %:        100  MISS %:          0   MPKI: 0
L1I LOAD      ACCESS:   11045961  HIT:   11045961  MISS:          0  HIT %:        100  MISS %:          0   MPKI: 0
L1I PREFETCH  REQUESTED:          0  ISSUED:          0  USEFUL:          0  USELESS:          0
L1I USEFUL LOAD PREFETCHES:          0 PREFETCH ISSUED TO LOWER LEVEL:          0  ACCURACY: -nan
L1I TIMELY PREFETCHES:          0 LATE PREFETCHES: 0 DROPPED PREFETCHES: 0
L1I PREFETCHES SAME FILL-ORIGIN LEVEL: 0 DIFFERENT FILL-ORIGIN LEVEL: 0
L1I AVERAGE MISS LATENCY: -nan cycles
L1I RQ	ACCESS:   18120459	FORWARD:          0	MERGED:    7074498	TO_CACHE:   11045961

BTB TOTAL     ACCESS:    8514768  HIT:    8514745  MISS:         23  HIT %:    99.9997  MISS %: 0.000270119   MPKI: 0.00046
BTB BRANCH_DIRECT_JUMP	ACCESS:          0  HIT:          0  MISS:          0
BTB BRANCH_INDIRECT	ACCESS:          2  HIT:          1  MISS:          1
BTB BRANCH_CONDITIONAL	ACCESS:    8514746  HIT:    8514742  MISS:          4
BTB BRANCH_DIRECT_CALL	ACCESS:         10  HIT:          1  MISS:          9
BTB BRANCH_INDIRECT_CALL	ACCESS:          0  HIT:          0  MISS:          0
BTB BRANCH_RETURN	ACCESS:         10  HIT:          1  MISS:          9
BTB BRANCH_OTHER ACCESS:          0  HIT:          0  MISS:          0

L2C TOTAL     ACCESS:    1883036  HIT:     553925  MISS:    1329111  HIT %:    29.4166  MISS %:    70.5834   MPKI: 26.5822
L2C LOAD      ACCESS:      62897  HIT:          0  MISS:      62897  HIT %:          0  MISS %:        100   MPKI: 1.25794
L2C DATA LOAD MPKI: 1.25794
L2C INSTRUCTION LOAD MPKI: 0
L2C RFO       ACCESS:          8  HIT:          0  MISS:          8  HIT %:          0  MISS %:        100   MPKI: 0.00016
L2C PREFETCH  ACCESS:    1263611  HIT:          0  MISS:    1263611  HIT %:          0  MISS %:        100   MPKI: 25.2722
AGUS PREFETCH L1 MISS: 0
L2C DATA PREFETCH MPKI: 25.2722
L2C INSTRUCTION PREFETCH MPKI: 0
L2C WRITEBACK ACCESS:     535789  HIT:     535789  MISS:          0  HIT %:        100  MISS %:          0   MPKI: 0
L2C LOAD TRANSLATION ACCESS:      20731  HIT:      18136  MISS:       2595  HIT %:    87.4825  MISS %:    12.5175   MPKI: 0.0519
L2C PREFETCH  REQUESTED:          0  ISSUED:          0  USEFUL:          0  USELESS:    1263696
L2C USEFUL LOAD PREFETCHES:          0 PREFETCH ISSUED TO LOWER LEVEL:    1263613  ACCURACY: 0
L2C TIMELY PREFETCHES:          0 LATE PREFETCHES: 0 DROPPED PREFETCHES: 0
L2C PREFETCHES SAME FILL-ORIGIN LEVEL: 0 DIFFERENT FILL-ORIGIN LEVEL: 0
L2C AVERAGE MISS LATENCY: 171.323 cycles
L2C RQ	ACCESS:      83636	FORWARD:          0	MERGED:          0	TO_CACHE:      83636
L2C WQ	ACCESS:     535789	FORWARD:          0	MERGED:          0	TO_CACHE:     535789
L2C PQ	ACCESS:    1263613	FORWARD:          0	MERGED:          0	TO_CACHE:    1263613

L2C Instructions Evicting Data 0
L2C Translations Evicting Data 2595
L2C Data Evicting Data 1323919
L2C Instructions Evicting Instructions 0
L2C Translations Evicting Instructions 0
L2C Data Evicting Instructions 0
L2C Instructions Evicting Translations 0
L2C Translations Evicting Translations 0
L2C Data Evicting Translations 2597
L2C Dense regions hint from L2: 0
PSCL5 TOTAL     ACCESS:      20731  HIT:      20731  MISS:          0  HIT %:        100  MISS %:          0   MPKI: 0
PSCL5 LOAD TRANSLATION ACCESS:      20731  HIT:      20731  MISS:          0  HIT %:        100  MISS %:          0   MPKI: 0
PSCL5 PREFETCH  REQUESTED:          0  ISSUED:          0  USEFUL:          0  USELESS:          0
PSCL5 USEFUL LOAD PREFETCHES:          0 PREFETCH ISSUED TO LOWER LEVEL:          0  ACCURACY: -nan
PSCL5 TIMELY PREFETCHES:          0 LATE PREFETCHES: 0 DROPPED PREFETCHES: 0
PSCL5 PREFETCHES SAME FILL-ORIGIN LEVEL: 0 DIFFERENT FILL-ORIGIN LEVEL: 0

PSCL4 TOTAL     ACCESS:      20731  HIT:      20731  MISS:          0  HIT %:        100  MISS %:          0   MPKI: 0
PSCL4 LOAD TRANSLATION ACCESS:      20731  HIT:      20731  MISS:          0  HIT %:        100  MISS %:          0   MPKI: 0
PSCL4 PREFETCH  REQUESTED:          0  ISSUED:          0  USEFUL:          0  USELESS:          0
PSCL4 USEFUL LOAD PREFETCHES:          0 PREFETCH ISSUED TO LOWER LEVEL:          0  ACCURACY: -nan
PSCL4 TIMELY PREFETCHES:          0 LATE PREFETCHES: 0 DROPPED PREFETCHES: 0
PSCL4 PREFETCHES SAME FILL-ORIGIN LEVEL: 0 DIFFERENT FILL-ORIGIN LEVEL: 0

PSCL3 TOTAL     ACCESS:      20731  HIT:      20731  MISS:          0  HIT %:        100  MISS %:          0   MPKI: 0
PSCL3 LOAD TRANSLATION ACCESS:      20731  HIT:      20731  MISS:          0  HIT %:        100  MISS %:          0   MPKI: 0
PSCL3 PREFETCH  REQUESTED:          0  ISSUED:          0  USEFUL:          0  USELESS:          0
PSCL3 USEFUL LOAD PREFETCHES:          0 PREFETCH ISSUED TO LOWER LEVEL:          0  ACCURACY: -nan
PSCL3 TIMELY PREFETCHES:          0 LATE PREFETCHES: 0 DROPPED PREFETCHES: 0
PSCL3 PREFETCHES SAME FILL-ORIGIN LEVEL: 0 DIFFERENT FILL-ORIGIN LEVEL: 0

PSCL2 TOTAL     ACCESS:      20731  HIT:      20731  MISS:          0  HIT %:        100  MISS %:          0   MPKI: 0
PSCL2 LOAD TRANSLATION ACCESS:      20731  HIT:      20731  MISS:          0  HIT %:        100  MISS %:          0   MPKI: 0
PSCL2 PREFETCH  REQUESTED:          0  ISSUED:          0  USEFUL:          0  USELESS:          0
PSCL2 USEFUL LOAD PREFETCHES:          0 PREFETCH ISSUED TO LOWER LEVEL:          0  ACCURACY: -nan
PSCL2 TIMELY PREFETCHES:          0 LATE PREFETCHES: 0 DROPPED PREFETCHES: 0
PSCL2 PREFETCHES SAME FILL-ORIGIN LEVEL: 0 DIFFERENT FILL-ORIGIN LEVEL: 0

LLC TOTAL     ACCESS:    1864669  HIT:     535558  MISS:    1329111  HIT %:    28.7213  MISS %:    71.2787   MPKI: 26.5822
LLC LOAD      ACCESS:      62897  HIT:          0  MISS:      62897  HIT %:          0  MISS %:        100   MPKI: 1.25794
LLC RFO       ACCESS:          8  HIT:          0  MISS:          8  HIT %:          0  MISS %:        100   MPKI: 0.00016
LLC PREFETCH  ACCESS:    1263611  HIT:          0  MISS:    1263611  HIT %:          0  MISS %:        100   MPKI: 25.2722
AGUS PREFETCH L1 MISS: 0
LLC WRITEBACK ACCESS:     535558  HIT:     535558  MISS:          0  HIT %:        100  MISS %:          0   MPKI: 0
LLC LOAD TRANSLATION ACCESS:       2595  HIT:          0  MISS:       2595  HIT %:          0  MISS %:        100   MPKI: 0.0519
LLC PREFETCH  REQUESTED:          0  ISSUED:          0  USEFUL:          0  USELESS:    1263971
LLC USEFUL LOAD PREFETCHES:          0 PREFETCH ISSUED TO LOWER LEVEL:    1263612  ACCURACY: 0
LLC TIMELY PREFETCHES:          0 LATE PREFETCHES: 0 DROPPED PREFETCHES: 0
LLC PREFETCHES SAME FILL-ORIGIN LEVEL: 0 DIFFERENT FILL-ORIGIN LEVEL: 0
LLC AVERAGE MISS LATENCY: 141.323 cycles
LLC RQ	ACCESS:      65500	FORWARD:          0	MERGED:          0	TO_CACHE:      65500
LLC WQ	ACCESS:     535558	FORWARD:          0	MERGED:          0	TO_CACHE:     535558
LLC PQ	ACCESS:    1263613	FORWARD:          0	MERGED:          0	TO_CACHE:    1263613

LLC Dense regions hint to LLC: 0

RAW hits: 11
Loads Generated: 15917885
Loads sent to L1D: 15917870
Stores Generated: 2108708
Stores sent to L1D: 2108708
Major fault: 0 Minor fault: 8227
Allocated PAGES: 8227

stream: 
stream:times selected: 3211677
stream:pref_filled: 2365568
stream:pref_useful: 2365534
stream:pref_late: 176709
stream:misses: 31160
stream:misses_by_poll: 0

CS: 
CS:times selected: 2426490
CS:pref_filled: 4256
CS:pref_useful: 4256
CS:pref_late: 981
CS:misses: 223313
CS:misses_by_poll: 48

CPLX: 
CPLX:times selected: 785118
CPLX:pref_filled: 20253
CPLX:pref_useful: 20251
CPLX:pref_late: 301
CPLX:misses: 145820
CPLX:misses_by_poll: 270

NL_L1: 
NL:times selected: 614
NL:pref_filled: 191
NL:pref_useful: 191
NL:pref_late: 1
NL:misses: 480
NL:misses_by_poll: 0

total selections: 6423899
total_filled: 1085074
total_useful: 1085060
total_late: 178881
total_polluted: 318
total_misses_after_warmup: 363787
conflicts: 31

test: 429221

DRAM Statistics
 CHANNEL 0
 RQ ROW_BUFFER_HIT:     842317  ROW_BUFFER_MISS:     486795
 DBUS_CONGESTED:      19585
 WQ ROW_BUFFER_HIT:      99994  ROW_BUFFER_MISS:     434797  FULL:          0

 AVG_CONGESTED_CYCLE: 5
 All warmup complete: 2
Channel 0 Bank busy for read cycles: 0
Channel 0 Bank busy for write cycles: 0
Channel 0
Rank 0
0banks busy for read cycles: 4702924
0banks busy for write cycles: 10488
1banks busy for read cycles: 21355661
1banks busy for write cycles: 1933773
2banks busy for read cycles: 8191642
2banks busy for write cycles: 59445
3banks busy for read cycles: 1362377
3banks busy for write cycles: 59140
4banks busy for read cycles: 559548
4banks busy for write cycles: 59078
5banks busy for read cycles: 388148
5banks busy for write cycles: 61184
6banks busy for read cycles: 334617
6banks busy for write cycles: 65851
7banks busy for read cycles: 1032881
7banks busy for write cycles: 601699
8banks busy for read cycles: 7504579
8banks busy for write cycles: 10025852

CPU 0 Branch Prediction Accuracy: 99.8647% MPKI: 0.2304 Average ROB Occupancy at Mispredict: 48.0267
Branch types
NOT_BRANCH: 41485260 82.9705%
BRANCH_DIRECT_JUMP: 0 0%
BRANCH_INDIRECT: 2 4e-06%
BRANCH_CONDITIONAL: 8514760 17.0295%
BRANCH_DIRECT_CALL: 10 2e-05%
BRANCH_INDIRECT_CALL: 0 0%
BRANCH_RETURN: 10 2e-05%
BRANCH_OTHER: 0 0%

DRAM PAGES: 1048576
Allocated PAGES: 8227
