
*** ChampSim Multicore Out-of-Order Simulator ***

Warmup Instructions: 50000000
Simulation Instructions: 50000000
Number of CPUs: 1
LLC sets: 2048
LLC ways: 16
Off-chip DRAM Size: 4096 MB Channels: 1 Width: 64-bit Data Rate: 6400 MT/s
CPU 0 runs ./traces/SPEC-CPU2017/471.omnetpp-188B.champsimtrace.xz
.xz
CPU 0 Bimodal branch predictor
BTB has LRU replacement policy
ITLB has LRU replacement policy
DTLB has LRU replacement policy
STLB has LRU replacement policy
L1I has LRU replacement policy
L1D has LRU replacement policy
L2C has LRU replacement policy
LLC has LRU replacement policy
Heartbeat CPU 0 instructions: 10000001 cycles: 3264634 heartbeat IPC: 3.06313 cumulative IPC: 3.06313 (Simulation time: 0 hr 1 min 1 sec) 
Heartbeat CPU 0 instructions: 20000000 cycles: 6487654 heartbeat IPC: 3.10268 cumulative IPC: 3.08278 (Simulation time: 0 hr 1 min 59 sec) 
Heartbeat CPU 0 instructions: 30000000 cycles: 9734620 heartbeat IPC: 3.0798 cumulative IPC: 3.08178 (Simulation time: 0 hr 3 min 1 sec) 
Heartbeat CPU 0 instructions: 40000000 cycles: 12972244 heartbeat IPC: 3.08868 cumulative IPC: 3.08351 (Simulation time: 0 hr 4 min 2 sec) 
Heartbeat CPU 0 instructions: 50000003 cycles: 16197287 heartbeat IPC: 3.10073 cumulative IPC: 3.08694 (Simulation time: 0 hr 5 min 2 sec) 

Warmup complete CPU 0 instructions: 50000003 cycles: 16197287 (Simulation time: 0 hr 5 min 2 sec) 

Heartbeat CPU 0 instructions: 60000000 cycles: 51709888 heartbeat IPC: 0.28159 cumulative IPC: 0.28159 (Simulation time: 0 hr 6 min 4 sec) 
Heartbeat CPU 0 instructions: 70000001 cycles: 86092330 heartbeat IPC: 0.290846 cumulative IPC: 0.286143 (Simulation time: 0 hr 7 min 7 sec) 
Heartbeat CPU 0 instructions: 80000000 cycles: 120766514 heartbeat IPC: 0.288399 cumulative IPC: 0.286891 (Simulation time: 0 hr 8 min 14 sec) 
Heartbeat CPU 0 instructions: 90000003 cycles: 155352245 heartbeat IPC: 0.289137 cumulative IPC: 0.287449 (Simulation time: 0 hr 9 min 19 sec) 
Heartbeat CPU 0 instructions: 100000000 cycles: 190314611 heartbeat IPC: 0.286022 cumulative IPC: 0.287163 (Simulation time: 0 hr 10 min 26 sec) 
Finished CPU 0 instructions: 50000000 cycles: 174117333 cumulative IPC: 0.287163 (Simulation time: 0 hr 10 min 26 sec) 

ChampSim completed all CPUs

Region of Interest Statistics

CPU 0 cumulative IPC: 0.287163 instructions: 50000000 cycles: 174117333
ITLB TOTAL     ACCESS:    8716374  HIT:    8699171  MISS:      17203  HIT %:    99.8026  MISS %:   0.197364   MPKI: 0.34406
ITLB LOAD TRANSLATION ACCESS:    8716374  HIT:    8699171  MISS:      17203  HIT %:    99.8026  MISS %:   0.197364   MPKI: 0.34406
ITLB PREFETCH  REQUESTED:          0  ISSUED:          0  USEFUL:          0  USELESS:          0
ITLB USEFUL LOAD PREFETCHES:          0 PREFETCH ISSUED TO LOWER LEVEL:          0  ACCURACY: -nan
ITLB TIMELY PREFETCHES:          0 LATE PREFETCHES: 0 DROPPED PREFETCHES: 0
ITLB PREFETCHES SAME FILL-ORIGIN LEVEL: 0 DIFFERENT FILL-ORIGIN LEVEL: 0
ITLB AVERAGE MISS LATENCY: 12.306 cycles
ITLB RQ	ACCESS:    9805072	FORWARD:          0	MERGED:    1081081	TO_CACHE:    8723991

DTLB TOTAL     ACCESS:   14692102  HIT:   13734373  MISS:     957729  HIT %:    93.4813  MISS %:    6.51867   MPKI: 19.1546
DTLB LOAD TRANSLATION ACCESS:   14692102  HIT:   13734373  MISS:     957729  HIT %:    93.4813  MISS %:    6.51867   MPKI: 19.1546
DTLB PREFETCH  REQUESTED:          0  ISSUED:          0  USEFUL:          0  USELESS:          0
DTLB USEFUL LOAD PREFETCHES:          0 PREFETCH ISSUED TO LOWER LEVEL:          0  ACCURACY: -nan
DTLB TIMELY PREFETCHES:          0 LATE PREFETCHES: 0 DROPPED PREFETCHES: 0
DTLB PREFETCHES SAME FILL-ORIGIN LEVEL: 0 DIFFERENT FILL-ORIGIN LEVEL: 0
DTLB AVERAGE MISS LATENCY: 17.0033 cycles
DTLB RQ	ACCESS:   17852029	FORWARD:          0	MERGED:    3115170	TO_CACHE:   14736859

STLB TOTAL     ACCESS:    2225494  HIT:    1857578  MISS:     367916  HIT %:    83.4681  MISS %:    16.5319   MPKI: 7.35832
STLB LOAD TRANSLATION ACCESS:     974932  HIT:     868153  MISS:     106779  HIT %:    89.0475  MISS %:    10.9525   MPKI: 2.13558
STLB TRANSLATION FROM L1D PREFETCHER ACCESS:    1250562  HIT:     989425  MISS:     261137  HIT %:    79.1184  MISS %:    20.8816   MPKI: 5.22274
STLB PREFETCH  REQUESTED:          0  ISSUED:          0  USEFUL:     164088  USELESS:      96766
STLB USEFUL LOAD PREFETCHES:     164088 PREFETCH ISSUED TO LOWER LEVEL:          0  ACCURACY: inf
STLB TIMELY PREFETCHES:     164088 LATE PREFETCHES: 432 DROPPED PREFETCHES: 0
STLB PREFETCHES SAME FILL-ORIGIN LEVEL: 0 DIFFERENT FILL-ORIGIN LEVEL: 0
STLB AVERAGE MISS LATENCY: 111.714 cycles
STLB RQ	ACCESS:    2369390	FORWARD:          0	MERGED:     142284	TO_CACHE:    2227106

STLB Hit, L1D data hit: 0
STLB Hit, L2C data hit: 0
STLB Hit, LLC data hit: 0
STLB Hit, LLC data miss: 0
STLB STLB hints to L2: 0
L1D TOTAL     ACCESS:   18732650  HIT:   16843925  MISS:    1888725  HIT %:    89.9175  MISS %:    10.0825   MPKI: 37.7745
L1D LOAD      ACCESS:    9498849  HIT:    8880515  MISS:     618334  HIT %:    93.4904  MISS %:    6.50957   MPKI: 12.3667
L1D RFO       ACCESS:    7898184  HIT:    7741544  MISS:     156640  HIT %:    98.0168  MISS %:    1.98324   MPKI: 3.1328
L1D PREFETCH  ACCESS:    1335617  HIT:     221866  MISS:    1113751  HIT %:    16.6115  MISS %:    83.3885   MPKI: 22.275
AGUS PREFETCH L1 MISS: 0
L1D PREFETCH  REQUESTED:    3005027  ISSUED:    2794057  USEFUL:     440802  USELESS:     673010
L1D USEFUL LOAD PREFETCHES:     440802 PREFETCH ISSUED TO LOWER LEVEL:    1125193  ACCURACY: 39.1757
L1D TIMELY PREFETCHES:     440802 LATE PREFETCHES: 10779 DROPPED PREFETCHES: 0
L1D PREFETCHES SAME FILL-ORIGIN LEVEL: 1125193 DIFFERENT FILL-ORIGIN LEVEL: 0
L1D AVERAGE MISS LATENCY: 153.076 cycles
L1D RQ	ACCESS:   14080217	FORWARD:          0	MERGED:    4057265	TO_CACHE:    9569468
L1D WQ	ACCESS:    8476021	FORWARD:     453555	MERGED:     193460	TO_CACHE:    8282561
L1D PQ	ACCESS:    1399599	FORWARD:          0	MERGED:       5070	TO_CACHE:    1394458

L1D UNIQUE REGIONS ACCESSED: 0
L1D REGIONS CONFLICTS: 0
L1D Cross Page Prefetch Requests: 1590977
L1D Same Page Prefetch Requests: 1016925
L1D ROI Sum of L1D PQ occupancy: 70925810
L1D PREFETCHES PUSHED FROM L2C: 0
L1I TOTAL     ACCESS:    9804773  HIT:    9803232  MISS:       1541  HIT %:    99.9843  MISS %:  0.0157168   MPKI: 0.03082
L1I LOAD      ACCESS:    9804773  HIT:    9803232  MISS:       1541  HIT %:    99.9843  MISS %:  0.0157168   MPKI: 0.03082
L1I PREFETCH  REQUESTED:          0  ISSUED:          0  USEFUL:          0  USELESS:          0
L1I USEFUL LOAD PREFETCHES:          0 PREFETCH ISSUED TO LOWER LEVEL:          0  ACCURACY: -nan
L1I TIMELY PREFETCHES:          0 LATE PREFETCHES: 0 DROPPED PREFETCHES: 0
L1I PREFETCHES SAME FILL-ORIGIN LEVEL: 0 DIFFERENT FILL-ORIGIN LEVEL: 0
L1I AVERAGE MISS LATENCY: 157.336 cycles
L1I RQ	ACCESS:   14759043	FORWARD:          0	MERGED:    4953971	TO_CACHE:    9805072

BTB TOTAL     ACCESS:   10008119  HIT:    9487971  MISS:     520148  HIT %:    94.8027  MISS %:    5.19726   MPKI: 10.403
BTB BRANCH_DIRECT_JUMP	ACCESS:     964405  HIT:     964243  MISS:        162
BTB BRANCH_INDIRECT	ACCESS:     140341  HIT:     116325  MISS:      24016
BTB BRANCH_CONDITIONAL	ACCESS:    5906166  HIT:    5905777  MISS:        389
BTB BRANCH_DIRECT_CALL	ACCESS:    1294152  HIT:    1293861  MISS:        291
BTB BRANCH_INDIRECT_CALL	ACCESS:     204449  HIT:     203146  MISS:       1303
BTB BRANCH_RETURN	ACCESS:    1498606  HIT:    1004619  MISS:     493987
BTB BRANCH_OTHER ACCESS:          0  HIT:          0  MISS:          0

L2C TOTAL     ACCESS:    2803526  HIT:    1224947  MISS:    1578579  HIT %:    43.6931  MISS %:    56.3069   MPKI: 31.5716
L2C LOAD      ACCESS:     609069  HIT:     191752  MISS:     417317  HIT %:    31.4828  MISS %:    68.5172   MPKI: 8.34634
L2C DATA LOAD MPKI: 8.31942
L2C INSTRUCTION LOAD MPKI: 0.02692
L2C RFO       ACCESS:     155977  HIT:      14690  MISS:     141287  HIT %:    9.41806  MISS %:    90.5819   MPKI: 2.82574
L2C PREFETCH  ACCESS:    1125177  HIT:     250738  MISS:     874439  HIT %:    22.2843  MISS %:    77.7157   MPKI: 17.4888
AGUS PREFETCH L1 MISS: 0
L2C DATA PREFETCH MPKI: 17.4888
L2C INSTRUCTION PREFETCH MPKI: 0
L2C WRITEBACK ACCESS:     507900  HIT:     506352  MISS:       1548  HIT %:    99.6952  MISS %:   0.304784   MPKI: 0.03096
L2C LOAD TRANSLATION ACCESS:     115968  HIT:      79496  MISS:      36472  HIT %:    68.5499  MISS %:    31.4501   MPKI: 0.72944
L2C TRANSLATION FROM L1D PREFETCHER ACCESS:     289435  HIT:     181919  MISS:     107516  HIT %:    62.8531  MISS %:    37.1469   MPKI: 2.15032
L2C PREFETCH  REQUESTED:          0  ISSUED:          0  USEFUL:     146130  USELESS:     835990
L2C USEFUL LOAD PREFETCHES:     146130 PREFETCH ISSUED TO LOWER LEVEL:     874439  ACCURACY: 16.7113
L2C TIMELY PREFETCHES:     146130 LATE PREFETCHES: 0 DROPPED PREFETCHES: 0
L2C PREFETCHES SAME FILL-ORIGIN LEVEL: 0 DIFFERENT FILL-ORIGIN LEVEL: 0
L2C AVERAGE MISS LATENCY: 172.425 cycles
L2C RQ	ACCESS:    1170476	FORWARD:          0	MERGED:          0	TO_CACHE:    1170449
L2C WQ	ACCESS:     507900	FORWARD:         43	MERGED:          0	TO_CACHE:     507900
L2C PQ	ACCESS:    1125193	FORWARD:          0	MERGED:          0	TO_CACHE:    1125177

L2C Instructions Evicting Data 1242
L2C Translations Evicting Data 130420
L2C Data Evicting Data 1299618
L2C Instructions Evicting Instructions 7
L2C Translations Evicting Instructions 124
L2C Data Evicting Instructions 1215
L2C Instructions Evicting Translations 97
L2C Translations Evicting Translations 13444
L2C Data Evicting Translations 130864
L2C Dense regions hint from L2: 0
PSCL5 TOTAL     ACCESS:     367916  HIT:     367916  MISS:          0  HIT %:        100  MISS %:          0   MPKI: 0
PSCL5 LOAD TRANSLATION ACCESS:     106347  HIT:     106347  MISS:          0  HIT %:        100  MISS %:          0   MPKI: 0
PSCL5 TRANSLATION FROM L1D PREFETCHER ACCESS:     261569  HIT:     261569  MISS:          0  HIT %:        100  MISS %:          0   MPKI: 0
PSCL5 PREFETCH  REQUESTED:          0  ISSUED:          0  USEFUL:          0  USELESS:          0
PSCL5 USEFUL LOAD PREFETCHES:          0 PREFETCH ISSUED TO LOWER LEVEL:          0  ACCURACY: -nan
PSCL5 TIMELY PREFETCHES:          0 LATE PREFETCHES: 0 DROPPED PREFETCHES: 0
PSCL5 PREFETCHES SAME FILL-ORIGIN LEVEL: 0 DIFFERENT FILL-ORIGIN LEVEL: 0

PSCL4 TOTAL     ACCESS:     367916  HIT:     367916  MISS:          0  HIT %:        100  MISS %:          0   MPKI: 0
PSCL4 LOAD TRANSLATION ACCESS:     106347  HIT:     106347  MISS:          0  HIT %:        100  MISS %:          0   MPKI: 0
PSCL4 TRANSLATION FROM L1D PREFETCHER ACCESS:     261569  HIT:     261569  MISS:          0  HIT %:        100  MISS %:          0   MPKI: 0
PSCL4 PREFETCH  REQUESTED:          0  ISSUED:          0  USEFUL:          0  USELESS:          0
PSCL4 USEFUL LOAD PREFETCHES:          0 PREFETCH ISSUED TO LOWER LEVEL:          0  ACCURACY: -nan
PSCL4 TIMELY PREFETCHES:          0 LATE PREFETCHES: 0 DROPPED PREFETCHES: 0
PSCL4 PREFETCHES SAME FILL-ORIGIN LEVEL: 0 DIFFERENT FILL-ORIGIN LEVEL: 0

PSCL3 TOTAL     ACCESS:     367916  HIT:     367916  MISS:          0  HIT %:        100  MISS %:          0   MPKI: 0
PSCL3 LOAD TRANSLATION ACCESS:     106347  HIT:     106347  MISS:          0  HIT %:        100  MISS %:          0   MPKI: 0
PSCL3 TRANSLATION FROM L1D PREFETCHER ACCESS:     261569  HIT:     261569  MISS:          0  HIT %:        100  MISS %:          0   MPKI: 0
PSCL3 PREFETCH  REQUESTED:          0  ISSUED:          0  USEFUL:          0  USELESS:          0
PSCL3 USEFUL LOAD PREFETCHES:          0 PREFETCH ISSUED TO LOWER LEVEL:          0  ACCURACY: -nan
PSCL3 TIMELY PREFETCHES:          0 LATE PREFETCHES: 0 DROPPED PREFETCHES: 0
PSCL3 PREFETCHES SAME FILL-ORIGIN LEVEL: 0 DIFFERENT FILL-ORIGIN LEVEL: 0

PSCL2 TOTAL     ACCESS:     367916  HIT:     330428  MISS:      37488  HIT %:    89.8107  MISS %:    10.1893   MPKI: 0.74976
PSCL2 LOAD TRANSLATION ACCESS:     134213  HIT:      96725  MISS:      37488  HIT %:    72.0683  MISS %:    27.9317   MPKI: 0.74976
PSCL2 TRANSLATION FROM L1D PREFETCHER ACCESS:     233703  HIT:     233703  MISS:          0  HIT %:        100  MISS %:          0   MPKI: 0
PSCL2 PREFETCH  REQUESTED:          0  ISSUED:          0  USEFUL:          0  USELESS:          0
PSCL2 USEFUL LOAD PREFETCHES:          0 PREFETCH ISSUED TO LOWER LEVEL:          0  ACCURACY: -nan
PSCL2 TIMELY PREFETCHES:          0 LATE PREFETCHES: 0 DROPPED PREFETCHES: 0
PSCL2 PREFETCHES SAME FILL-ORIGIN LEVEL: 0 DIFFERENT FILL-ORIGIN LEVEL: 0

LLC TOTAL     ACCESS:    2024643  HIT:     846976  MISS:    1177667  HIT %:    41.8334  MISS %:    58.1666   MPKI: 23.5533
LLC LOAD      ACCESS:     417315  HIT:      89988  MISS:     327327  HIT %:    21.5636  MISS %:    78.4364   MPKI: 6.54654
LLC RFO       ACCESS:     141287  HIT:      20081  MISS:     121206  HIT %:    14.2129  MISS %:    85.7871   MPKI: 2.42412
LLC PREFETCH  ACCESS:     874439  HIT:     184518  MISS:     689921  HIT %:    21.1013  MISS %:    78.8987   MPKI: 13.7984
AGUS PREFETCH L1 MISS: 0
LLC WRITEBACK ACCESS:     447614  HIT:     446502  MISS:       1112  HIT %:    99.7516  MISS %:   0.248428   MPKI: 0.02224
LLC LOAD TRANSLATION ACCESS:      36472  HIT:      28877  MISS:       7595  HIT %:    79.1758  MISS %:    20.8242   MPKI: 0.1519
LLC TRANSLATION FROM L1D PREFETCHER ACCESS:     107516  HIT:      77010  MISS:      30506  HIT %:    71.6265  MISS %:    28.3735   MPKI: 0.61012
LLC PREFETCH  REQUESTED:          0  ISSUED:          0  USEFUL:      49863  USELESS:     669329
LLC USEFUL LOAD PREFETCHES:      49863 PREFETCH ISSUED TO LOWER LEVEL:     689921  ACCURACY: 7.22735
LLC TIMELY PREFETCHES:      49863 LATE PREFETCHES: 0 DROPPED PREFETCHES: 0
LLC PREFETCHES SAME FILL-ORIGIN LEVEL: 0 DIFFERENT FILL-ORIGIN LEVEL: 0
LLC AVERAGE MISS LATENCY: 190.877 cycles
LLC RQ	ACCESS:     702592	FORWARD:          0	MERGED:          0	TO_CACHE:     702590
LLC WQ	ACCESS:     447614	FORWARD:          2	MERGED:          0	TO_CACHE:     447614
LLC PQ	ACCESS:     874439	FORWARD:          0	MERGED:          0	TO_CACHE:     874439

LLC Dense regions hint to LLC: 0

RAW hits: 795218
Loads Generated: 14875435
Loads sent to L1D: 14080217
Stores Generated: 8476009
Stores sent to L1D: 8476021
Major fault: 0 Minor fault: 33441
Allocated PAGES: 33441

stream: 
stream:times selected: 1008509
stream:pref_filled: 600487
stream:pref_useful: 98669
stream:pref_late: 11996
stream:misses: 96282
stream:misses_by_poll: 0

CS: 
CS:times selected: 19298
CS:pref_filled: 9294
CS:pref_useful: 1396
CS:pref_late: 89
CS:misses: 2283
CS:misses_by_poll: 1

CPLX: 
CPLX:times selected: 998039
CPLX:pref_filled: 22104
CPLX:pref_useful: 2108
CPLX:pref_late: 75
CPLX:misses: 298208
CPLX:misses_by_poll: 0

ISB: 
ISB:times selected:594723
ISB:pref_filled: 1407563
ISB:pref_useful: 656063
ISB:pref_late: 7412
ISB:misses: 565050
ISB:misses_by_poll: 7909

NL_L1: 
NL:times selected: 6507
NL:pref_filled: 4015
NL:pref_useful: 819
NL:pref_late: 100
NL:misses: 6459
NL:misses_by_poll: 0

total selections: 2627076
total_filled: 1113751
total_useful: 440802
total_late: 20770
total_polluted: 7910
total_misses_after_warmup: 688953
conflicts: 131316

test: 706001
ISB Prefetcher final stats
Training Unit Size: 268
Addr table size: 354590 354599


Triggers: 1008513
No Prediction: 413790 41.0297
Stream end: 410001
No translation: 415697763 41218.9
Predictions: 1641506 162.765


Stream divergence: 222466 22.0588
Stream divergence -- new stream: 0

DRAM Statistics
 CHANNEL 0
 RQ ROW_BUFFER_HIT:     126418  ROW_BUFFER_MISS:    1050117
 DBUS_CONGESTED:        252
 WQ ROW_BUFFER_HIT:      60875  ROW_BUFFER_MISS:     316702  FULL:          0

 AVG_CONGESTED_CYCLE: 4
 All warmup complete: 2
Channel 0 Bank busy for read cycles: 0
Channel 0 Bank busy for write cycles: 0
Channel 0
Rank 0
0banks busy for read cycles: 64771173
0banks busy for write cycles: 111209
1banks busy for read cycles: 34168757
1banks busy for write cycles: 14069799
2banks busy for read cycles: 20326107
2banks busy for write cycles: 7362081
3banks busy for read cycles: 10062087
3banks busy for write cycles: 4472730
4banks busy for read cycles: 6036644
4banks busy for write cycles: 2848847
5banks busy for read cycles: 3712832
5banks busy for write cycles: 1762281
6banks busy for read cycles: 1878113
6banks busy for write cycles: 1037966
7banks busy for read cycles: 580363
7banks busy for write cycles: 558487
8banks busy for read cycles: 99096
8banks busy for write cycles: 258762

CPU 0 Branch Prediction Accuracy: 94.0755% MPKI: 14.2353 Average ROB Occupancy at Mispredict: 25.5565
Branch types
NOT_BRANCH: 37985796 75.9716%
BRANCH_DIRECT_JUMP: 964405 1.92881%
BRANCH_INDIRECT: 140341 0.280682%
BRANCH_CONDITIONAL: 7911981 15.824%
BRANCH_DIRECT_CALL: 1294152 2.5883%
BRANCH_INDIRECT_CALL: 204449 0.408898%
BRANCH_RETURN: 1498606 2.99721%
BRANCH_OTHER: 0 0%

DRAM PAGES: 1048576
Allocated PAGES: 33441
