
*** ChampSim Multicore Out-of-Order Simulator ***

Warmup Instructions: 50000000
Simulation Instructions: 50000000
Number of CPUs: 1
LLC sets: 2048
LLC ways: 16
Off-chip DRAM Size: 4096 MB Channels: 1 Width: 64-bit Data Rate: 6400 MT/s
CPU 0 runs ./traces/SPEC-CPU2017/482.sphinx3-234B.champsimtrace.xz
.xz
CPU 0 Bimodal branch predictor
BTB has LRU replacement policy
ITLB has LRU replacement policy
DTLB has LRU replacement policy
STLB has LRU replacement policy
L1I has LRU replacement policy
L1D has LRU replacement policy
L2C has LRU replacement policy
LLC has LRU replacement policy
Heartbeat CPU 0 instructions: 10000000 cycles: 3093982 heartbeat IPC: 3.23208 cumulative IPC: 3.23208 (Simulation time: 0 hr 0 min 39 sec) 
Heartbeat CPU 0 instructions: 20000000 cycles: 6189701 heartbeat IPC: 3.23027 cumulative IPC: 3.23117 (Simulation time: 0 hr 1 min 17 sec) 
Heartbeat CPU 0 instructions: 30000001 cycles: 9282612 heartbeat IPC: 3.2332 cumulative IPC: 3.23185 (Simulation time: 0 hr 1 min 56 sec) 
Heartbeat CPU 0 instructions: 40000000 cycles: 12413033 heartbeat IPC: 3.19446 cumulative IPC: 3.22242 (Simulation time: 0 hr 2 min 35 sec) 
Heartbeat CPU 0 instructions: 50000000 cycles: 15460805 heartbeat IPC: 3.28109 cumulative IPC: 3.23398 (Simulation time: 0 hr 3 min 15 sec) 

Warmup complete CPU 0 instructions: 50000004 cycles: 15460806 (Simulation time: 0 hr 3 min 15 sec) 

Heartbeat CPU 0 instructions: 60000000 cycles: 28737113 heartbeat IPC: 0.753221 cumulative IPC: 0.753221 (Simulation time: 0 hr 4 min 4 sec) 
Heartbeat CPU 0 instructions: 70000000 cycles: 41413691 heartbeat IPC: 0.788856 cumulative IPC: 0.770627 (Simulation time: 0 hr 4 min 52 sec) 
Heartbeat CPU 0 instructions: 80000000 cycles: 54022421 heartbeat IPC: 0.793101 cumulative IPC: 0.777976 (Simulation time: 0 hr 5 min 39 sec) 
Heartbeat CPU 0 instructions: 90000001 cycles: 66828325 heartbeat IPC: 0.78089 cumulative IPC: 0.778702 (Simulation time: 0 hr 6 min 28 sec) 
Heartbeat CPU 0 instructions: 100000000 cycles: 80246068 heartbeat IPC: 0.745282 cumulative IPC: 0.77178 (Simulation time: 0 hr 7 min 18 sec) 
Finished CPU 0 instructions: 50000000 cycles: 64785279 cumulative IPC: 0.77178 (Simulation time: 0 hr 7 min 18 sec) 

ChampSim completed all CPUs

Region of Interest Statistics

CPU 0 cumulative IPC: 0.77178 instructions: 50000000 cycles: 64785279
ITLB TOTAL     ACCESS:    9693619  HIT:    9693619  MISS:          0  HIT %:        100  MISS %:          0   MPKI: 0
ITLB LOAD TRANSLATION ACCESS:    9693619  HIT:    9693619  MISS:          0  HIT %:        100  MISS %:          0   MPKI: 0
ITLB PREFETCH  REQUESTED:          0  ISSUED:          0  USEFUL:          0  USELESS:          0
ITLB USEFUL LOAD PREFETCHES:          0 PREFETCH ISSUED TO LOWER LEVEL:          0  ACCURACY: -nan
ITLB TIMELY PREFETCHES:          0 LATE PREFETCHES: 0 DROPPED PREFETCHES: 0
ITLB PREFETCHES SAME FILL-ORIGIN LEVEL: 0 DIFFERENT FILL-ORIGIN LEVEL: 0
ITLB AVERAGE MISS LATENCY: -nan cycles
ITLB RQ	ACCESS:   10499850	FORWARD:          0	MERGED:     806230	TO_CACHE:    9693620

DTLB TOTAL     ACCESS:    8409345  HIT:    8347460  MISS:      61885  HIT %:    99.2641  MISS %:   0.735907   MPKI: 1.2377
DTLB LOAD TRANSLATION ACCESS:    8409345  HIT:    8347460  MISS:      61885  HIT %:    99.2641  MISS %:   0.735907   MPKI: 1.2377
DTLB PREFETCH  REQUESTED:          0  ISSUED:          0  USEFUL:          0  USELESS:          0
DTLB USEFUL LOAD PREFETCHES:          0 PREFETCH ISSUED TO LOWER LEVEL:          0  ACCURACY: -nan
DTLB TIMELY PREFETCHES:          0 LATE PREFETCHES: 0 DROPPED PREFETCHES: 0
DTLB PREFETCHES SAME FILL-ORIGIN LEVEL: 0 DIFFERENT FILL-ORIGIN LEVEL: 0
DTLB AVERAGE MISS LATENCY: 19.6222 cycles
DTLB RQ	ACCESS:    9266570	FORWARD:          0	MERGED:     846677	TO_CACHE:    8419893

STLB TOTAL     ACCESS:     395377  HIT:     373965  MISS:      21412  HIT %:    94.5844  MISS %:    5.41559   MPKI: 0.42824
STLB LOAD TRANSLATION ACCESS:      61885  HIT:      56291  MISS:       5594  HIT %:    90.9607  MISS %:    9.03935   MPKI: 0.11188
STLB TRANSLATION FROM L1D PREFETCHER ACCESS:     333492  HIT:     317674  MISS:      15818  HIT %:    95.2569  MISS %:    4.74314   MPKI: 0.31636
STLB PREFETCH  REQUESTED:          0  ISSUED:          0  USEFUL:      14261  USELESS:       1505
STLB USEFUL LOAD PREFETCHES:      14261 PREFETCH ISSUED TO LOWER LEVEL:          0  ACCURACY: inf
STLB TIMELY PREFETCHES:      14261 LATE PREFETCHES: 6 DROPPED PREFETCHES: 0
STLB PREFETCHES SAME FILL-ORIGIN LEVEL: 0 DIFFERENT FILL-ORIGIN LEVEL: 0
STLB AVERAGE MISS LATENCY: 81.4149 cycles
STLB RQ	ACCESS:     845179	FORWARD:          0	MERGED:     449766	TO_CACHE:     395413

STLB Hit, L1D data hit: 0
STLB Hit, L2C data hit: 0
STLB Hit, LLC data hit: 0
STLB Hit, LLC data miss: 0
STLB STLB hints to L2: 0
L1D TOTAL     ACCESS:    9395985  HIT:    8469405  MISS:     926580  HIT %:    90.1386  MISS %:    9.86145   MPKI: 18.5316
L1D LOAD      ACCESS:    7940201  HIT:    7658126  MISS:     282075  HIT %:    96.4475  MISS %:    3.55249   MPKI: 5.6415
L1D RFO       ACCESS:     690176  HIT:     656072  MISS:      34104  HIT %:    95.0587  MISS %:    4.94135   MPKI: 0.68208
L1D PREFETCH  ACCESS:     765608  HIT:     155207  MISS:     610401  HIT %:    20.2724  MISS %:    79.7276   MPKI: 12.208
AGUS PREFETCH L1 MISS: 0
L1D PREFETCH  REQUESTED:    1663158  ISSUED:    1568255  USEFUL:     405852  USELESS:     204566
L1D USEFUL LOAD PREFETCHES:     405852 PREFETCH ISSUED TO LOWER LEVEL:     617645  ACCURACY: 65.7096
L1D TIMELY PREFETCHES:     405852 LATE PREFETCHES: 7234 DROPPED PREFETCHES: 0
L1D PREFETCHES SAME FILL-ORIGIN LEVEL: 617645 DIFFERENT FILL-ORIGIN LEVEL: 0
L1D AVERAGE MISS LATENCY: 125.938 cycles
L1D RQ	ACCESS:   12888810	FORWARD:          0	MERGED:    4468074	TO_CACHE:    8409760
L1D WQ	ACCESS:     858601	FORWARD:      10976	MERGED:       1791	TO_CACHE:     856810
L1D PQ	ACCESS:     784961	FORWARD:          0	MERGED:       1667	TO_CACHE:     783294

L1D UNIQUE REGIONS ACCESSED: 0
L1D REGIONS CONFLICTS: 0
L1D Cross Page Prefetch Requests: 360051
L1D Same Page Prefetch Requests: 1229930
L1D ROI Sum of L1D PQ occupancy: 14421263
L1D PREFETCHES PUSHED FROM L2C: 0
L1I TOTAL     ACCESS:   10499849  HIT:   10499849  MISS:          0  HIT %:        100  MISS %:          0   MPKI: 0
L1I LOAD      ACCESS:   10499849  HIT:   10499849  MISS:          0  HIT %:        100  MISS %:          0   MPKI: 0
L1I PREFETCH  REQUESTED:          0  ISSUED:          0  USEFUL:          0  USELESS:          0
L1I USEFUL LOAD PREFETCHES:          0 PREFETCH ISSUED TO LOWER LEVEL:          0  ACCURACY: -nan
L1I TIMELY PREFETCHES:          0 LATE PREFETCHES: 0 DROPPED PREFETCHES: 0
L1I PREFETCHES SAME FILL-ORIGIN LEVEL: 0 DIFFERENT FILL-ORIGIN LEVEL: 0
L1I AVERAGE MISS LATENCY: -nan cycles
L1I RQ	ACCESS:   12691238	FORWARD:          0	MERGED:    2191388	TO_CACHE:   10499850

BTB TOTAL     ACCESS:    4309222  HIT:    4298929  MISS:      10293  HIT %:    99.7611  MISS %:    0.23886   MPKI: 0.20586
BTB BRANCH_DIRECT_JUMP	ACCESS:      86243  HIT:      86192  MISS:         51
BTB BRANCH_INDIRECT	ACCESS:          0  HIT:          0  MISS:          0
BTB BRANCH_CONDITIONAL	ACCESS:    4052261  HIT:    4052082  MISS:        179
BTB BRANCH_DIRECT_CALL	ACCESS:      85360  HIT:      85282  MISS:         78
BTB BRANCH_INDIRECT_CALL	ACCESS:          0  HIT:          0  MISS:          0
BTB BRANCH_RETURN	ACCESS:      85358  HIT:      75373  MISS:       9985
BTB BRANCH_OTHER ACCESS:          0  HIT:          0  MISS:          0

L2C TOTAL     ACCESS:     990349  HIT:     302376  MISS:     687973  HIT %:    30.5323  MISS %:    69.4677   MPKI: 13.7595
L2C LOAD      ACCESS:     274841  HIT:      97524  MISS:     177317  HIT %:    35.4838  MISS %:    64.5162   MPKI: 3.54634
L2C DATA LOAD MPKI: 3.54634
L2C INSTRUCTION LOAD MPKI: 0
L2C RFO       ACCESS:      34092  HIT:       2591  MISS:      31501  HIT %:    7.60002  MISS %:       92.4   MPKI: 0.63002
L2C PREFETCH  ACCESS:     617645  HIT:     143275  MISS:     474370  HIT %:     23.197  MISS %:     76.803   MPKI: 9.4874
AGUS PREFETCH L1 MISS: 0
L2C DATA PREFETCH MPKI: 9.4874
L2C INSTRUCTION PREFETCH MPKI: 0
L2C WRITEBACK ACCESS:      42359  HIT:      42232  MISS:        127  HIT %:    99.7002  MISS %:   0.299818   MPKI: 0.00254
L2C LOAD TRANSLATION ACCESS:       5588  HIT:       3636  MISS:       1952  HIT %:     65.068  MISS %:     34.932   MPKI: 0.03904
L2C TRANSLATION FROM L1D PREFETCHER ACCESS:      15824  HIT:      13118  MISS:       2706  HIT %:    82.8994  MISS %:    17.1006   MPKI: 0.05412
L2C PREFETCH  REQUESTED:          0  ISSUED:          0  USEFUL:      16155  USELESS:     461089
L2C USEFUL LOAD PREFETCHES:      16155 PREFETCH ISSUED TO LOWER LEVEL:     474370  ACCURACY: 3.40557
L2C TIMELY PREFETCHES:      16155 LATE PREFETCHES: 0 DROPPED PREFETCHES: 0
L2C PREFETCHES SAME FILL-ORIGIN LEVEL: 0 DIFFERENT FILL-ORIGIN LEVEL: 0
L2C AVERAGE MISS LATENCY: 150.107 cycles
L2C RQ	ACCESS:     330347	FORWARD:          0	MERGED:          0	TO_CACHE:     330345
L2C WQ	ACCESS:      42359	FORWARD:          2	MERGED:          0	TO_CACHE:      42359
L2C PQ	ACCESS:     617645	FORWARD:          0	MERGED:          0	TO_CACHE:     617645

L2C Instructions Evicting Data 0
L2C Translations Evicting Data 4640
L2C Data Evicting Data 678547
L2C Instructions Evicting Instructions 0
L2C Translations Evicting Instructions 0
L2C Data Evicting Instructions 0
L2C Instructions Evicting Translations 0
L2C Translations Evicting Translations 18
L2C Data Evicting Translations 4641
L2C Dense regions hint from L2: 0
PSCL5 TOTAL     ACCESS:      21412  HIT:      21412  MISS:          0  HIT %:        100  MISS %:          0   MPKI: 0
PSCL5 LOAD TRANSLATION ACCESS:       5588  HIT:       5588  MISS:          0  HIT %:        100  MISS %:          0   MPKI: 0
PSCL5 TRANSLATION FROM L1D PREFETCHER ACCESS:      15824  HIT:      15824  MISS:          0  HIT %:        100  MISS %:          0   MPKI: 0
PSCL5 PREFETCH  REQUESTED:          0  ISSUED:          0  USEFUL:          0  USELESS:          0
PSCL5 USEFUL LOAD PREFETCHES:          0 PREFETCH ISSUED TO LOWER LEVEL:          0  ACCURACY: -nan
PSCL5 TIMELY PREFETCHES:          0 LATE PREFETCHES: 0 DROPPED PREFETCHES: 0
PSCL5 PREFETCHES SAME FILL-ORIGIN LEVEL: 0 DIFFERENT FILL-ORIGIN LEVEL: 0

PSCL4 TOTAL     ACCESS:      21412  HIT:      21412  MISS:          0  HIT %:        100  MISS %:          0   MPKI: 0
PSCL4 LOAD TRANSLATION ACCESS:       5588  HIT:       5588  MISS:          0  HIT %:        100  MISS %:          0   MPKI: 0
PSCL4 TRANSLATION FROM L1D PREFETCHER ACCESS:      15824  HIT:      15824  MISS:          0  HIT %:        100  MISS %:          0   MPKI: 0
PSCL4 PREFETCH  REQUESTED:          0  ISSUED:          0  USEFUL:          0  USELESS:          0
PSCL4 USEFUL LOAD PREFETCHES:          0 PREFETCH ISSUED TO LOWER LEVEL:          0  ACCURACY: -nan
PSCL4 TIMELY PREFETCHES:          0 LATE PREFETCHES: 0 DROPPED PREFETCHES: 0
PSCL4 PREFETCHES SAME FILL-ORIGIN LEVEL: 0 DIFFERENT FILL-ORIGIN LEVEL: 0

PSCL3 TOTAL     ACCESS:      21412  HIT:      21412  MISS:          0  HIT %:        100  MISS %:          0   MPKI: 0
PSCL3 LOAD TRANSLATION ACCESS:       5588  HIT:       5588  MISS:          0  HIT %:        100  MISS %:          0   MPKI: 0
PSCL3 TRANSLATION FROM L1D PREFETCHER ACCESS:      15824  HIT:      15824  MISS:          0  HIT %:        100  MISS %:          0   MPKI: 0
PSCL3 PREFETCH  REQUESTED:          0  ISSUED:          0  USEFUL:          0  USELESS:          0
PSCL3 USEFUL LOAD PREFETCHES:          0 PREFETCH ISSUED TO LOWER LEVEL:          0  ACCURACY: -nan
PSCL3 TIMELY PREFETCHES:          0 LATE PREFETCHES: 0 DROPPED PREFETCHES: 0
PSCL3 PREFETCHES SAME FILL-ORIGIN LEVEL: 0 DIFFERENT FILL-ORIGIN LEVEL: 0

PSCL2 TOTAL     ACCESS:      21412  HIT:      21412  MISS:          0  HIT %:        100  MISS %:          0   MPKI: 0
PSCL2 LOAD TRANSLATION ACCESS:       5588  HIT:       5588  MISS:          0  HIT %:        100  MISS %:          0   MPKI: 0
PSCL2 TRANSLATION FROM L1D PREFETCHER ACCESS:      15824  HIT:      15824  MISS:          0  HIT %:        100  MISS %:          0   MPKI: 0
PSCL2 PREFETCH  REQUESTED:          0  ISSUED:          0  USEFUL:          0  USELESS:          0
PSCL2 USEFUL LOAD PREFETCHES:          0 PREFETCH ISSUED TO LOWER LEVEL:          0  ACCURACY: -nan
PSCL2 TIMELY PREFETCHES:          0 LATE PREFETCHES: 0 DROPPED PREFETCHES: 0
PSCL2 PREFETCHES SAME FILL-ORIGIN LEVEL: 0 DIFFERENT FILL-ORIGIN LEVEL: 0

LLC TOTAL     ACCESS:     726105  HIT:      72157  MISS:     653948  HIT %:    9.93754  MISS %:    90.0625   MPKI: 13.079
LLC LOAD      ACCESS:     177317  HIT:      11624  MISS:     165693  HIT %:    6.55549  MISS %:    93.4445   MPKI: 3.31386
LLC RFO       ACCESS:      31501  HIT:       4560  MISS:      26941  HIT %:    14.4757  MISS %:    85.5243   MPKI: 0.53882
LLC PREFETCH  ACCESS:     474369  HIT:      18877  MISS:     455492  HIT %:    3.97939  MISS %:    96.0206   MPKI: 9.10984
AGUS PREFETCH L1 MISS: 0
LLC WRITEBACK ACCESS:      38260  HIT:      36916  MISS:       1344  HIT %:    96.4872  MISS %:    3.51281   MPKI: 0.02688
LLC LOAD TRANSLATION ACCESS:       1952  HIT:         83  MISS:       1869  HIT %:    4.25205  MISS %:     95.748   MPKI: 0.03738
LLC TRANSLATION FROM L1D PREFETCHER ACCESS:       2706  HIT:         97  MISS:       2609  HIT %:    3.58463  MISS %:    96.4154   MPKI: 0.05218
LLC PREFETCH  REQUESTED:          0  ISSUED:          0  USEFUL:       5156  USELESS:     453807
LLC USEFUL LOAD PREFETCHES:       5156 PREFETCH ISSUED TO LOWER LEVEL:     455492  ACCURACY: 1.13196
LLC TIMELY PREFETCHES:       5156 LATE PREFETCHES: 0 DROPPED PREFETCHES: 0
LLC PREFETCHES SAME FILL-ORIGIN LEVEL: 0 DIFFERENT FILL-ORIGIN LEVEL: 0
LLC AVERAGE MISS LATENCY: 126.36 cycles
LLC RQ	ACCESS:     213476	FORWARD:          0	MERGED:          0	TO_CACHE:     213476
LLC WQ	ACCESS:      38260	FORWARD:          1	MERGED:          0	TO_CACHE:      38260
LLC PQ	ACCESS:     474370	FORWARD:          0	MERGED:          0	TO_CACHE:     474369

LLC Dense regions hint to LLC: 0

RAW hits: 56931
Loads Generated: 12945743
Loads sent to L1D: 12888810
Stores Generated: 858600
Stores sent to L1D: 858601
Major fault: 0 Minor fault: 4120
Allocated PAGES: 4120

stream: 
stream:times selected: 603017
stream:pref_filled: 307088
stream:pref_useful: 143878
stream:pref_late: 7339
stream:misses: 33661
stream:misses_by_poll: 0

CS: 
CS:times selected: 29573
CS:pref_filled: 64909
CS:pref_useful: 54938
CS:pref_late: 7
CS:misses: 24066
CS:misses_by_poll: 5

CPLX: 
CPLX:times selected: 570485
CPLX:pref_filled: 79009
CPLX:pref_useful: 48308
CPLX:pref_late: 57
CPLX:misses: 186807
CPLX:misses_by_poll: 21

ISB: 
ISB:times selected:417477
ISB:pref_filled: 789504
ISB:pref_useful: 548017
ISB:pref_late: 1131
ISB:misses: 833423
ISB:misses_by_poll: 3445

NL_L1: 
NL:times selected: 857
NL:pref_filled: 607
NL:pref_useful: 313
NL:pref_late: 8
NL:misses: 1176
NL:misses_by_poll: 0

total selections: 1621409
total_filled: 610401
total_useful: 405852
total_late: 9452
total_polluted: 3471
total_misses_after_warmup: 751633
conflicts: 6253

test: 211718
ISB Prefetcher final stats
Training Unit Size: 196
Addr table size: 131080 131084


Triggers: 603021
No Prediction: 185544 30.7691
Stream end: 343188
No translation: 348763780 57836.1
Predictions: 887672 147.204


Stream divergence: 165908 27.5128
Stream divergence -- new stream: 0

DRAM Statistics
 CHANNEL 0
 RQ ROW_BUFFER_HIT:     424117  ROW_BUFFER_MISS:     228487
 DBUS_CONGESTED:        145
 WQ ROW_BUFFER_HIT:       5711  ROW_BUFFER_MISS:      30430  FULL:          0

 AVG_CONGESTED_CYCLE: 4
 All warmup complete: 2
Channel 0 Bank busy for read cycles: 0
Channel 0 Bank busy for write cycles: 0
Channel 0
Rank 0
0banks busy for read cycles: 38348228
0banks busy for write cycles: 18097
1banks busy for read cycles: 9742233
1banks busy for write cycles: 2281669
2banks busy for read cycles: 4765398
2banks busy for write cycles: 761077
3banks busy for read cycles: 2847310
3banks busy for write cycles: 335128
4banks busy for read cycles: 1881512
4banks busy for write cycles: 173727
5banks busy for read cycles: 1484745
5banks busy for write cycles: 87951
6banks busy for read cycles: 1302019
6banks busy for write cycles: 43261
7banks busy for read cycles: 584231
7banks busy for write cycles: 18117
8banks busy for read cycles: 101817
8banks busy for write cycles: 8760

CPU 0 Branch Prediction Accuracy: 95.9006% MPKI: 3.75384 Average ROB Occupancy at Mispredict: 87.0276
Branch types
NOT_BRANCH: 45421487 90.843%
BRANCH_DIRECT_JUMP: 86243 0.172486%
BRANCH_INDIRECT: 0 0%
BRANCH_CONDITIONAL: 4321573 8.64315%
BRANCH_DIRECT_CALL: 85360 0.17072%
BRANCH_INDIRECT_CALL: 0 0%
BRANCH_RETURN: 85358 0.170716%
BRANCH_OTHER: 0 0%

DRAM PAGES: 1048576
Allocated PAGES: 4120
