
*** ChampSim Multicore Out-of-Order Simulator ***

Warmup Instructions: 50000000
Simulation Instructions: 50000000
Number of CPUs: 1
LLC sets: 2048
LLC ways: 16
Off-chip DRAM Size: 4096 MB Channels: 1 Width: 64-bit Data Rate: 6400 MT/s
CPU 0 runs ./traces/SPEC-CPU2017/602.gcc_s-2226B.champsimtrace.xz
.xz
CPU 0 Bimodal branch predictor
BTB has LRU replacement policy
ITLB has LRU replacement policy
DTLB has LRU replacement policy
STLB has LRU replacement policy
L1I has LRU replacement policy
L1D has LRU replacement policy
L2C has LRU replacement policy
LLC has LRU replacement policy
Heartbeat CPU 0 instructions: 10000001 cycles: 3844774 heartbeat IPC: 2.60093 cumulative IPC: 2.60093 (Simulation time: 0 hr 0 min 29 sec) 
Heartbeat CPU 0 instructions: 20000000 cycles: 7692334 heartbeat IPC: 2.59905 cumulative IPC: 2.59999 (Simulation time: 0 hr 0 min 58 sec) 
Heartbeat CPU 0 instructions: 30000001 cycles: 11535144 heartbeat IPC: 2.60226 cumulative IPC: 2.60075 (Simulation time: 0 hr 1 min 26 sec) 
Heartbeat CPU 0 instructions: 40000000 cycles: 15377523 heartbeat IPC: 2.60255 cumulative IPC: 2.6012 (Simulation time: 0 hr 1 min 55 sec) 
Heartbeat CPU 0 instructions: 50000000 cycles: 19223337 heartbeat IPC: 2.60023 cumulative IPC: 2.60101 (Simulation time: 0 hr 2 min 24 sec) 

Warmup complete CPU 0 instructions: 50000004 cycles: 19223338 (Simulation time: 0 hr 2 min 24 sec) 

Heartbeat CPU 0 instructions: 60000000 cycles: 121279985 heartbeat IPC: 0.0979848 cumulative IPC: 0.0979848 (Simulation time: 0 hr 3 min 55 sec) 
Heartbeat CPU 0 instructions: 70000000 cycles: 223574863 heartbeat IPC: 0.0977566 cumulative IPC: 0.0978706 (Simulation time: 0 hr 5 min 26 sec) 
Heartbeat CPU 0 instructions: 80000000 cycles: 324891631 heartbeat IPC: 0.0987003 cumulative IPC: 0.0981456 (Simulation time: 0 hr 6 min 57 sec) 
Heartbeat CPU 0 instructions: 90000001 cycles: 426955018 heartbeat IPC: 0.0979783 cumulative IPC: 0.0981037 (Simulation time: 0 hr 8 min 28 sec) 
Heartbeat CPU 0 instructions: 100000000 cycles: 529114671 heartbeat IPC: 0.097886 cumulative IPC: 0.0980601 (Simulation time: 0 hr 9 min 59 sec) 
Finished CPU 0 instructions: 50000003 cycles: 509891468 cumulative IPC: 0.0980601 (Simulation time: 0 hr 9 min 59 sec) 

ChampSim completed all CPUs

Region of Interest Statistics

CPU 0 cumulative IPC: 0.0980601 instructions: 50000003 cycles: 509891468
ITLB TOTAL     ACCESS:   12244352  HIT:   12244352  MISS:          0  HIT %:        100  MISS %:          0   MPKI: 0
ITLB LOAD TRANSLATION ACCESS:   12244352  HIT:   12244352  MISS:          0  HIT %:        100  MISS %:          0   MPKI: 0
ITLB PREFETCH  REQUESTED:          0  ISSUED:          0  USEFUL:          0  USELESS:          0
ITLB USEFUL LOAD PREFETCHES:          0 PREFETCH ISSUED TO LOWER LEVEL:          0  ACCURACY: -nan
ITLB TIMELY PREFETCHES:          0 LATE PREFETCHES: 0 DROPPED PREFETCHES: 0
ITLB PREFETCHES SAME FILL-ORIGIN LEVEL: 0 DIFFERENT FILL-ORIGIN LEVEL: 0
ITLB AVERAGE MISS LATENCY: -nan cycles
ITLB RQ	ACCESS:   12417211	FORWARD:          0	MERGED:     172860	TO_CACHE:   12244351

DTLB TOTAL     ACCESS:    7717580  HIT:    7649091  MISS:      68489  HIT %:    99.1126  MISS %:   0.887441   MPKI: 1.36978
DTLB LOAD TRANSLATION ACCESS:    7717580  HIT:    7649091  MISS:      68489  HIT %:    99.1126  MISS %:   0.887441   MPKI: 1.36978
DTLB PREFETCH  REQUESTED:          0  ISSUED:          0  USEFUL:          0  USELESS:          0
DTLB USEFUL LOAD PREFETCHES:          0 PREFETCH ISSUED TO LOWER LEVEL:          0  ACCURACY: -nan
DTLB TIMELY PREFETCHES:          0 LATE PREFETCHES: 0 DROPPED PREFETCHES: 0
DTLB PREFETCHES SAME FILL-ORIGIN LEVEL: 0 DIFFERENT FILL-ORIGIN LEVEL: 0
DTLB AVERAGE MISS LATENCY: 69.3175 cycles
DTLB RQ	ACCESS:    9079342	FORWARD:          0	MERGED:    1361522	TO_CACHE:    7717820

STLB TOTAL     ACCESS:      68489  HIT:       2398  MISS:      66091  HIT %:    3.50129  MISS %:    96.4987   MPKI: 1.32182
STLB LOAD TRANSLATION ACCESS:      68489  HIT:       2398  MISS:      66091  HIT %:    3.50129  MISS %:    96.4987   MPKI: 1.32182
STLB PREFETCH  REQUESTED:          0  ISSUED:          0  USEFUL:          0  USELESS:          0
STLB USEFUL LOAD PREFETCHES:          0 PREFETCH ISSUED TO LOWER LEVEL:          0  ACCURACY: -nan
STLB TIMELY PREFETCHES:          0 LATE PREFETCHES: 0 DROPPED PREFETCHES: 0
STLB PREFETCHES SAME FILL-ORIGIN LEVEL: 0 DIFFERENT FILL-ORIGIN LEVEL: 0
STLB AVERAGE MISS LATENCY: 62.5055 cycles
STLB RQ	ACCESS:      68489	FORWARD:          0	MERGED:          0	TO_CACHE:      68489

STLB Hit, L1D data hit: 0
STLB Hit, L2C data hit: 0
STLB Hit, LLC data hit: 0
STLB Hit, LLC data miss: 0
STLB STLB hints to L2: 0
L1D TOTAL     ACCESS:    7820962  HIT:    4315970  MISS:    3504992  HIT %:    55.1846  MISS %:    44.8154   MPKI: 70.0998
L1D LOAD      ACCESS:    7166065  HIT:    3662421  MISS:    3503644  HIT %:    51.1078  MISS %:    48.8922   MPKI: 70.0729
L1D RFO       ACCESS:     654897  HIT:     653549  MISS:       1348  HIT %:    99.7942  MISS %:   0.205834   MPKI: 0.02696
L1D PREFETCH  REQUESTED:          0  ISSUED:          0  USEFUL:          0  USELESS:          0
L1D USEFUL LOAD PREFETCHES:          0 PREFETCH ISSUED TO LOWER LEVEL:          0  ACCURACY: -nan
L1D TIMELY PREFETCHES:          0 LATE PREFETCHES: 0 DROPPED PREFETCHES: 0
L1D PREFETCHES SAME FILL-ORIGIN LEVEL: 0 DIFFERENT FILL-ORIGIN LEVEL: 0
L1D AVERAGE MISS LATENCY: 120.506 cycles
L1D RQ	ACCESS:   17950380	FORWARD:          0	MERGED:    9524554	TO_CACHE:    8424441
L1D WQ	ACCESS:     726205	FORWARD:       1385	MERGED:      71304	TO_CACHE:     654901

L1D UNIQUE REGIONS ACCESSED: 0
L1D REGIONS CONFLICTS: 0
L1D Cross Page Prefetch Requests: 0
L1D Same Page Prefetch Requests: 0
L1D ROI Sum of L1D PQ occupancy: 0
L1D PREFETCHES PUSHED FROM L2C: 0
L1I TOTAL     ACCESS:   12417211  HIT:   12417211  MISS:          0  HIT %:        100  MISS %:          0   MPKI: 0
L1I LOAD      ACCESS:   12417211  HIT:   12417211  MISS:          0  HIT %:        100  MISS %:          0   MPKI: 0
L1I PREFETCH  REQUESTED:          0  ISSUED:          0  USEFUL:          0  USELESS:          0
L1I USEFUL LOAD PREFETCHES:          0 PREFETCH ISSUED TO LOWER LEVEL:          0  ACCURACY: -nan
L1I TIMELY PREFETCHES:          0 LATE PREFETCHES: 0 DROPPED PREFETCHES: 0
L1I PREFETCHES SAME FILL-ORIGIN LEVEL: 0 DIFFERENT FILL-ORIGIN LEVEL: 0
L1I AVERAGE MISS LATENCY: -nan cycles
L1I RQ	ACCESS:   17861070	FORWARD:          0	MERGED:    5443859	TO_CACHE:   12417211

BTB TOTAL     ACCESS:   11928195  HIT:   11928097  MISS:         98  HIT %:    99.9992  MISS %: 0.000821583   MPKI: 0.00196
BTB BRANCH_DIRECT_JUMP	ACCESS:     168848  HIT:     168822  MISS:         26
BTB BRANCH_INDIRECT	ACCESS:          0  HIT:          0  MISS:          0
BTB BRANCH_CONDITIONAL	ACCESS:   11592637  HIT:   11592588  MISS:         49
BTB BRANCH_DIRECT_CALL	ACCESS:      83355  HIT:      83345  MISS:         10
BTB BRANCH_INDIRECT_CALL	ACCESS:          0  HIT:          0  MISS:          0
BTB BRANCH_RETURN	ACCESS:      83355  HIT:      83342  MISS:         13
BTB BRANCH_OTHER ACCESS:          0  HIT:          0  MISS:          0

L2C TOTAL     ACCESS:    3578256  HIT:      59232  MISS:    3519024  HIT %:    1.65533  MISS %:    98.3447   MPKI: 70.3805
L2C LOAD      ACCESS:    3503642  HIT:       1533  MISS:    3502109  HIT %:  0.0437545  MISS %:    99.9562   MPKI: 70.0422
L2C DATA LOAD MPKI: 70.0422
L2C INSTRUCTION LOAD MPKI: 0
L2C RFO       ACCESS:       1348  HIT:          0  MISS:       1348  HIT %:          0  MISS %:        100   MPKI: 0.02696
L2C WRITEBACK ACCESS:       5610  HIT:       5599  MISS:         11  HIT %:    99.8039  MISS %:   0.196078   MPKI: 0.00022
L2C LOAD TRANSLATION ACCESS:      67656  HIT:      52100  MISS:      15556  HIT %:    77.0072  MISS %:    22.9928   MPKI: 0.31112
L2C PREFETCH  REQUESTED:          0  ISSUED:          0  USEFUL:          0  USELESS:          0
L2C USEFUL LOAD PREFETCHES:          0 PREFETCH ISSUED TO LOWER LEVEL:          0  ACCURACY: -nan
L2C TIMELY PREFETCHES:          0 LATE PREFETCHES: 0 DROPPED PREFETCHES: 0
L2C PREFETCHES SAME FILL-ORIGIN LEVEL: 0 DIFFERENT FILL-ORIGIN LEVEL: 0
L2C AVERAGE MISS LATENCY: 105.892 cycles
L2C RQ	ACCESS:    3572647	FORWARD:          0	MERGED:          0	TO_CACHE:    3572645
L2C WQ	ACCESS:       5610	FORWARD:          2	MERGED:          0	TO_CACHE:       5610

L2C Instructions Evicting Data 0
L2C Translations Evicting Data 15513
L2C Data Evicting Data 3487950
L2C Instructions Evicting Instructions 0
L2C Translations Evicting Instructions 0
L2C Data Evicting Instructions 0
L2C Instructions Evicting Translations 0
L2C Translations Evicting Translations 43
L2C Data Evicting Translations 15507
L2C Dense regions hint from L2: 0
PSCL5 TOTAL     ACCESS:      66091  HIT:      66091  MISS:          0  HIT %:        100  MISS %:          0   MPKI: 0
PSCL5 LOAD TRANSLATION ACCESS:      66091  HIT:      66091  MISS:          0  HIT %:        100  MISS %:          0   MPKI: 0
PSCL5 PREFETCH  REQUESTED:          0  ISSUED:          0  USEFUL:          0  USELESS:          0
PSCL5 USEFUL LOAD PREFETCHES:          0 PREFETCH ISSUED TO LOWER LEVEL:          0  ACCURACY: -nan
PSCL5 TIMELY PREFETCHES:          0 LATE PREFETCHES: 0 DROPPED PREFETCHES: 0
PSCL5 PREFETCHES SAME FILL-ORIGIN LEVEL: 0 DIFFERENT FILL-ORIGIN LEVEL: 0

PSCL4 TOTAL     ACCESS:      66091  HIT:      66091  MISS:          0  HIT %:        100  MISS %:          0   MPKI: 0
PSCL4 LOAD TRANSLATION ACCESS:      66091  HIT:      66091  MISS:          0  HIT %:        100  MISS %:          0   MPKI: 0
PSCL4 PREFETCH  REQUESTED:          0  ISSUED:          0  USEFUL:          0  USELESS:          0
PSCL4 USEFUL LOAD PREFETCHES:          0 PREFETCH ISSUED TO LOWER LEVEL:          0  ACCURACY: -nan
PSCL4 TIMELY PREFETCHES:          0 LATE PREFETCHES: 0 DROPPED PREFETCHES: 0
PSCL4 PREFETCHES SAME FILL-ORIGIN LEVEL: 0 DIFFERENT FILL-ORIGIN LEVEL: 0

PSCL3 TOTAL     ACCESS:      66089  HIT:      66082  MISS:          7  HIT %:    99.9894  MISS %:  0.0105918   MPKI: 0.00014
PSCL3 LOAD TRANSLATION ACCESS:      66089  HIT:      66082  MISS:          7  HIT %:    99.9894  MISS %:  0.0105918   MPKI: 0.00014
PSCL3 PREFETCH  REQUESTED:          0  ISSUED:          0  USEFUL:          0  USELESS:          0
PSCL3 USEFUL LOAD PREFETCHES:          0 PREFETCH ISSUED TO LOWER LEVEL:          0  ACCURACY: -nan
PSCL3 TIMELY PREFETCHES:          0 LATE PREFETCHES: 0 DROPPED PREFETCHES: 0
PSCL3 PREFETCHES SAME FILL-ORIGIN LEVEL: 0 DIFFERENT FILL-ORIGIN LEVEL: 0

PSCL2 TOTAL     ACCESS:      66091  HIT:      64532  MISS:       1559  HIT %:    97.6411  MISS %:    2.35887   MPKI: 0.03118
PSCL2 LOAD TRANSLATION ACCESS:      66091  HIT:      64532  MISS:       1559  HIT %:    97.6411  MISS %:    2.35887   MPKI: 0.03118
PSCL2 PREFETCH  REQUESTED:          0  ISSUED:          0  USEFUL:          0  USELESS:          0
PSCL2 USEFUL LOAD PREFETCHES:          0 PREFETCH ISSUED TO LOWER LEVEL:          0  ACCURACY: -nan
PSCL2 TIMELY PREFETCHES:          0 LATE PREFETCHES: 0 DROPPED PREFETCHES: 0
PSCL2 PREFETCHES SAME FILL-ORIGIN LEVEL: 0 DIFFERENT FILL-ORIGIN LEVEL: 0

LLC TOTAL     ACCESS:    3524620  HIT:       6456  MISS:    3518164  HIT %:   0.183169  MISS %:    99.8168   MPKI: 70.3633
LLC LOAD      ACCESS:    3502109  HIT:         98  MISS:    3502011  HIT %: 0.00279831  MISS %:    99.9972   MPKI: 70.0402
LLC RFO       ACCESS:       1348  HIT:          0  MISS:       1348  HIT %:          0  MISS %:        100   MPKI: 0.02696
LLC WRITEBACK ACCESS:       5607  HIT:       5596  MISS:         11  HIT %:    99.8038  MISS %:   0.196183   MPKI: 0.00022
LLC LOAD TRANSLATION ACCESS:      15556  HIT:        762  MISS:      14794  HIT %:    4.89843  MISS %:    95.1016   MPKI: 0.29588
LLC PREFETCH  REQUESTED:          0  ISSUED:          0  USEFUL:          0  USELESS:          0
LLC USEFUL LOAD PREFETCHES:          0 PREFETCH ISSUED TO LOWER LEVEL:          0  ACCURACY: -nan
LLC TIMELY PREFETCHES:          0 LATE PREFETCHES: 0 DROPPED PREFETCHES: 0
LLC PREFETCHES SAME FILL-ORIGIN LEVEL: 0 DIFFERENT FILL-ORIGIN LEVEL: 0
LLC AVERAGE MISS LATENCY: 75.9104 cycles
LLC RQ	ACCESS:    3519012	FORWARD:          0	MERGED:          0	TO_CACHE:    3519012
LLC WQ	ACCESS:       5607	FORWARD:          0	MERGED:          0	TO_CACHE:       5607

LLC Dense regions hint to LLC: 0

RAW hits: 4229
Loads Generated: 17954611
Loads sent to L1D: 17950380
Stores Generated: 726205
Stores sent to L1D: 726205
Major fault: 0 Minor fault: 48887
Allocated PAGES: 48887

DRAM Statistics
 CHANNEL 0
 RQ ROW_BUFFER_HIT:    3313930  ROW_BUFFER_MISS:     204223
 DBUS_CONGESTED:          2
 WQ ROW_BUFFER_HIT:       4426  ROW_BUFFER_MISS:       1199  FULL:          0

 AVG_CONGESTED_CYCLE: 4
 All warmup complete: 2
Channel 0 Bank busy for read cycles: 0
Channel 0 Bank busy for write cycles: 0
Channel 0
Rank 0
0banks busy for read cycles: 312393339
0banks busy for write cycles: 3235
1banks busy for read cycles: 190060218
1banks busy for write cycles: 2753799
2banks busy for read cycles: 3116085
2banks busy for write cycles: 1005210
3banks busy for read cycles: 12464
3banks busy for write cycles: 343104
4banks busy for read cycles: 45
4banks busy for write cycles: 156525
5banks busy for read cycles: 0
5banks busy for write cycles: 30773
6banks busy for read cycles: 0
6banks busy for write cycles: 16641
7banks busy for read cycles: 0
7banks busy for write cycles: 31
8banks busy for read cycles: 0
8banks busy for write cycles: 0

CPU 0 Branch Prediction Accuracy: 99.1302% MPKI: 3.1024 Average ROB Occupancy at Mispredict: 100.531
Branch types
NOT_BRANCH: 32166917 64.3338%
BRANCH_DIRECT_JUMP: 168848 0.337696%
BRANCH_INDIRECT: 0 0%
BRANCH_CONDITIONAL: 17497543 34.9951%
BRANCH_DIRECT_CALL: 83355 0.16671%
BRANCH_INDIRECT_CALL: 0 0%
BRANCH_RETURN: 83355 0.16671%
BRANCH_OTHER: 0 0%

DRAM PAGES: 1048576
Allocated PAGES: 48887
