
*** ChampSim Multicore Out-of-Order Simulator ***

Warmup Instructions: 50000000
Simulation Instructions: 50000000
Number of CPUs: 1
LLC sets: 2048
LLC ways: 16
Off-chip DRAM Size: 4096 MB Channels: 1 Width: 64-bit Data Rate: 6400 MT/s
CPU 0 runs traces/SPEC-CPU2017/602.gcc_s-2226B.champsimtrace.xz
.xz
CPU 0 Bimodal branch predictor
BTB has LRU replacement policy
ITLB has LRU replacement policy
DTLB has LRU replacement policy
STLB has LRU replacement policy
L1I has LRU replacement policy
L1D has LRU replacement policy
L2C has LRU replacement policy
LLC has LRU replacement policy
Heartbeat CPU 0 instructions: 10000001 cycles: 3757634 heartbeat IPC: 2.66125 cumulative IPC: 2.66125 (Simulation time: 0 hr 5 min 22 sec) 
Heartbeat CPU 0 instructions: 20000000 cycles: 7516119 heartbeat IPC: 2.66065 cumulative IPC: 2.66095 (Simulation time: 0 hr 10 min 45 sec) 
Heartbeat CPU 0 instructions: 30000001 cycles: 11270003 heartbeat IPC: 2.66391 cumulative IPC: 2.66193 (Simulation time: 0 hr 16 min 44 sec) 
Heartbeat CPU 0 instructions: 40000000 cycles: 15021048 heartbeat IPC: 2.66592 cumulative IPC: 2.66293 (Simulation time: 0 hr 23 min 5 sec) 
Heartbeat CPU 0 instructions: 50000000 cycles: 18769612 heartbeat IPC: 2.66769 cumulative IPC: 2.66388 (Simulation time: 0 hr 29 min 18 sec) 

Warmup complete CPU 0 instructions: 50000004 cycles: 18769613 (Simulation time: 0 hr 29 min 18 sec) 

Heartbeat CPU 0 instructions: 60000000 cycles: 44973361 heartbeat IPC: 0.381625 cumulative IPC: 0.381625 (Simulation time: 0 hr 30 min 56 sec) 
Heartbeat CPU 0 instructions: 70000000 cycles: 70851197 heartbeat IPC: 0.386431 cumulative IPC: 0.384013 (Simulation time: 0 hr 32 min 31 sec) 
Heartbeat CPU 0 instructions: 80000000 cycles: 96781946 heartbeat IPC: 0.385643 cumulative IPC: 0.384555 (Simulation time: 0 hr 34 min 3 sec) 
Heartbeat CPU 0 instructions: 90000001 cycles: 122726457 heartbeat IPC: 0.385438 cumulative IPC: 0.384775 (Simulation time: 0 hr 35 min 24 sec) 
Heartbeat CPU 0 instructions: 100000000 cycles: 148509633 heartbeat IPC: 0.38785 cumulative IPC: 0.385386 (Simulation time: 0 hr 36 min 28 sec) 
Finished CPU 0 instructions: 50000001 cycles: 129740040 cumulative IPC: 0.385386 (Simulation time: 0 hr 36 min 28 sec) 

ChampSim completed all CPUs

Region of Interest Statistics

CPU 0 cumulative IPC: 0.385386 instructions: 50000001 cycles: 129740040
ITLB TOTAL     ACCESS:   11150064  HIT:   11150064  MISS:          0  HIT %:        100  MISS %:          0   MPKI: 0
ITLB LOAD TRANSLATION ACCESS:   11150064  HIT:   11150064  MISS:          0  HIT %:        100  MISS %:          0   MPKI: 0
ITLB PREFETCH  REQUESTED:          0  ISSUED:          0  USEFUL:          0  USELESS:          0
ITLB USEFUL LOAD PREFETCHES:          0 PREFETCH ISSUED TO LOWER LEVEL:          0  ACCURACY: -nan
ITLB TIMELY PREFETCHES:          0 LATE PREFETCHES: 0 DROPPED PREFETCHES: 0
ITLB PREFETCHES SAME FILL-ORIGIN LEVEL: 0 DIFFERENT FILL-ORIGIN LEVEL: 0
ITLB AVERAGE MISS LATENCY: -nan cycles
ITLB RQ	ACCESS:   11322917	FORWARD:          0	MERGED:     172854	TO_CACHE:   11150063

DTLB TOTAL     ACCESS:    7734657  HIT:    7666169  MISS:      68488  HIT %:    99.1145  MISS %:   0.885469   MPKI: 1.36976
DTLB LOAD TRANSLATION ACCESS:    7734657  HIT:    7666169  MISS:      68488  HIT %:    99.1145  MISS %:   0.885469   MPKI: 1.36976
DTLB PREFETCH  REQUESTED:          0  ISSUED:          0  USEFUL:          0  USELESS:          0
DTLB USEFUL LOAD PREFETCHES:          0 PREFETCH ISSUED TO LOWER LEVEL:          0  ACCURACY: -nan
DTLB TIMELY PREFETCHES:          0 LATE PREFETCHES: 0 DROPPED PREFETCHES: 0
DTLB PREFETCHES SAME FILL-ORIGIN LEVEL: 0 DIFFERENT FILL-ORIGIN LEVEL: 0
DTLB AVERAGE MISS LATENCY: 18.2351 cycles
DTLB RQ	ACCESS:    9098845	FORWARD:          0	MERGED:    1364169	TO_CACHE:    7734676

STLB TOTAL     ACCESS:    3294373  HIT:    3228346  MISS:      66027  HIT %:    97.9958  MISS %:    2.00424   MPKI: 1.32054
STLB LOAD TRANSLATION ACCESS:      68488  HIT:      62501  MISS:       5987  HIT %:    91.2583  MISS %:    8.74168   MPKI: 0.11974
STLB TRANSLATION FROM L1D PREFETCHER ACCESS:    3225885  HIT:    3165845  MISS:      60040  HIT %:    98.1388  MISS %:    1.86119   MPKI: 1.2008
STLB PREFETCH  REQUESTED:          0  ISSUED:          0  USEFUL:      60038  USELESS:          1
STLB USEFUL LOAD PREFETCHES:      60038 PREFETCH ISSUED TO LOWER LEVEL:          0  ACCURACY: inf
STLB TIMELY PREFETCHES:      60038 LATE PREFETCHES: 75 DROPPED PREFETCHES: 0
STLB PREFETCHES SAME FILL-ORIGIN LEVEL: 0 DIFFERENT FILL-ORIGIN LEVEL: 0
STLB AVERAGE MISS LATENCY: 92.6957 cycles
STLB RQ	ACCESS:    5252954	FORWARD:          0	MERGED:    1956447	TO_CACHE:    3296507

STLB Hit, L1D data hit: 0
STLB Hit, L2C data hit: 0
STLB Hit, LLC data hit: 0
STLB Hit, LLC data miss: 0
STLB STLB hints to L2: 0
L1D TOTAL     ACCESS:   14065020  HIT:   10257457  MISS:    3807563  HIT %:    72.9288  MISS %:    27.0712   MPKI: 76.1513
L1D LOAD      ACCESS:    8379357  HIT:    8163917  MISS:     215440  HIT %:    97.4289  MISS %:    2.57108   MPKI: 4.3088
L1D RFO       ACCESS:     654317  HIT:     653766  MISS:        551  HIT %:    99.9158  MISS %:  0.0842099   MPKI: 0.01102
L1D PREFETCH  ACCESS:    5031346  HIT:    1439774  MISS:    3591572  HIT %:    28.6161  MISS %:    71.3839   MPKI: 71.8314
AGUS PREFETCH L1 MISS: 0
L1D PREFETCH  REQUESTED:   10616729  ISSUED:   10368933  USEFUL:    3307153  USELESS:     284428
L1D USEFUL LOAD PREFETCHES:    3307153 PREFETCH ISSUED TO LOWER LEVEL:    3739863  ACCURACY: 88.4298
L1D TIMELY PREFETCHES:    3307153 LATE PREFETCHES: 147877 DROPPED PREFETCHES: 0
L1D PREFETCHES SAME FILL-ORIGIN LEVEL: 3739863 DIFFERENT FILL-ORIGIN LEVEL: 0
L1D AVERAGE MISS LATENCY: 122.45 cycles
L1D RQ	ACCESS:   17950681	FORWARD:          0	MERGED:    9504645	TO_CACHE:    8444524
L1D WQ	ACCESS:     726205	FORWARD:       1512	MERGED:      71884	TO_CACHE:     654321
L1D PQ	ACCESS:    5184467	FORWARD:          0	MERGED:          1	TO_CACHE:    5184466

L1D UNIQUE REGIONS ACCESSED: 0
L1D REGIONS CONFLICTS: 0
L1D Cross Page Prefetch Requests: 380595
L1D Same Page Prefetch Requests: 9529297
L1D ROI Sum of L1D PQ occupancy: 84460093
L1D PREFETCHES PUSHED FROM L2C: 0
L1I TOTAL     ACCESS:   11322917  HIT:   11322917  MISS:          0  HIT %:        100  MISS %:          0   MPKI: 0
L1I LOAD      ACCESS:   11322917  HIT:   11322917  MISS:          0  HIT %:        100  MISS %:          0   MPKI: 0
L1I PREFETCH  REQUESTED:          0  ISSUED:          0  USEFUL:          0  USELESS:          0
L1I USEFUL LOAD PREFETCHES:          0 PREFETCH ISSUED TO LOWER LEVEL:          0  ACCURACY: -nan
L1I TIMELY PREFETCHES:          0 LATE PREFETCHES: 0 DROPPED PREFETCHES: 0
L1I PREFETCHES SAME FILL-ORIGIN LEVEL: 0 DIFFERENT FILL-ORIGIN LEVEL: 0
L1I AVERAGE MISS LATENCY: -nan cycles
L1I RQ	ACCESS:   16022177	FORWARD:          0	MERGED:    4699260	TO_CACHE:   11322917

BTB TOTAL     ACCESS:   11928195  HIT:   11928097  MISS:         98  HIT %:    99.9992  MISS %: 0.000821583   MPKI: 0.00196
BTB BRANCH_DIRECT_JUMP	ACCESS:     168848  HIT:     168822  MISS:         26
BTB BRANCH_INDIRECT	ACCESS:          0  HIT:          0  MISS:          0
BTB BRANCH_CONDITIONAL	ACCESS:   11592637  HIT:   11592588  MISS:         49
BTB BRANCH_DIRECT_CALL	ACCESS:      83355  HIT:      83345  MISS:         10
BTB BRANCH_INDIRECT_CALL	ACCESS:          0  HIT:          0  MISS:          0
BTB BRANCH_RETURN	ACCESS:      83355  HIT:      83342  MISS:         13
BTB BRANCH_OTHER ACCESS:          0  HIT:          0  MISS:          0

L2C TOTAL     ACCESS:    3881143  HIT:     213721  MISS:    3667422  HIT %:    5.50665  MISS %:    94.4933   MPKI: 73.3484
L2C LOAD      ACCESS:      67547  HIT:      19997  MISS:      47550  HIT %:    29.6046  MISS %:    70.3954   MPKI: 0.951
L2C DATA LOAD MPKI: 0.951
L2C INSTRUCTION LOAD MPKI: 0
L2C RFO       ACCESS:        141  HIT:         78  MISS:         63  HIT %:    55.3191  MISS %:    44.6809   MPKI: 0.00126
L2C PREFETCH  ACCESS:    3739858  HIT:     135820  MISS:    3604038  HIT %:    3.63169  MISS %:    96.3683   MPKI: 72.0808
AGUS PREFETCH L1 MISS: 0
L2C DATA PREFETCH MPKI: 72.0808
L2C INSTRUCTION PREFETCH MPKI: 0
L2C WRITEBACK ACCESS:       6052  HIT:       5898  MISS:        154  HIT %:    97.4554  MISS %:    2.54461   MPKI: 0.00308
L2C LOAD TRANSLATION ACCESS:       6286  HIT:       3482  MISS:       2804  HIT %:    55.3929  MISS %:    44.6071   MPKI: 0.05608
L2C TRANSLATION FROM L1D PREFETCHER ACCESS:      61259  HIT:      48446  MISS:      12813  HIT %:    79.0839  MISS %:    20.9161   MPKI: 0.25626
L2C PREFETCH  REQUESTED:          0  ISSUED:          0  USEFUL:      15766  USELESS:    3601003
L2C USEFUL LOAD PREFETCHES:      15766 PREFETCH ISSUED TO LOWER LEVEL:    3604043  ACCURACY: 0.437453
L2C TIMELY PREFETCHES:      15766 LATE PREFETCHES: 0 DROPPED PREFETCHES: 0
L2C PREFETCHES SAME FILL-ORIGIN LEVEL: 0 DIFFERENT FILL-ORIGIN LEVEL: 0
L2C AVERAGE MISS LATENCY: 112.155 cycles
L2C RQ	ACCESS:     135249	FORWARD:          0	MERGED:          0	TO_CACHE:     135233
L2C WQ	ACCESS:       6052	FORWARD:         16	MERGED:          0	TO_CACHE:       6052
L2C PQ	ACCESS:    3739863	FORWARD:          0	MERGED:          0	TO_CACHE:    3739863

L2C Instructions Evicting Data 0
L2C Translations Evicting Data 15568
L2C Data Evicting Data 3636083
L2C Instructions Evicting Instructions 0
L2C Translations Evicting Instructions 0
L2C Data Evicting Instructions 0
L2C Instructions Evicting Translations 0
L2C Translations Evicting Translations 49
L2C Data Evicting Translations 15568
L2C Dense regions hint from L2: 0
PSCL5 TOTAL     ACCESS:      66027  HIT:      66027  MISS:          0  HIT %:        100  MISS %:          0   MPKI: 0
PSCL5 LOAD TRANSLATION ACCESS:       5912  HIT:       5912  MISS:          0  HIT %:        100  MISS %:          0   MPKI: 0
PSCL5 TRANSLATION FROM L1D PREFETCHER ACCESS:      60115  HIT:      60115  MISS:          0  HIT %:        100  MISS %:          0   MPKI: 0
PSCL5 PREFETCH  REQUESTED:          0  ISSUED:          0  USEFUL:          0  USELESS:          0
PSCL5 USEFUL LOAD PREFETCHES:          0 PREFETCH ISSUED TO LOWER LEVEL:          0  ACCURACY: -nan
PSCL5 TIMELY PREFETCHES:          0 LATE PREFETCHES: 0 DROPPED PREFETCHES: 0
PSCL5 PREFETCHES SAME FILL-ORIGIN LEVEL: 0 DIFFERENT FILL-ORIGIN LEVEL: 0

PSCL4 TOTAL     ACCESS:      66027  HIT:      66027  MISS:          0  HIT %:        100  MISS %:          0   MPKI: 0
PSCL4 LOAD TRANSLATION ACCESS:       5912  HIT:       5912  MISS:          0  HIT %:        100  MISS %:          0   MPKI: 0
PSCL4 TRANSLATION FROM L1D PREFETCHER ACCESS:      60115  HIT:      60115  MISS:          0  HIT %:        100  MISS %:          0   MPKI: 0
PSCL4 PREFETCH  REQUESTED:          0  ISSUED:          0  USEFUL:          0  USELESS:          0
PSCL4 USEFUL LOAD PREFETCHES:          0 PREFETCH ISSUED TO LOWER LEVEL:          0  ACCURACY: -nan
PSCL4 TIMELY PREFETCHES:          0 LATE PREFETCHES: 0 DROPPED PREFETCHES: 0
PSCL4 PREFETCHES SAME FILL-ORIGIN LEVEL: 0 DIFFERENT FILL-ORIGIN LEVEL: 0

PSCL3 TOTAL     ACCESS:      66019  HIT:      66012  MISS:          7  HIT %:    99.9894  MISS %:   0.010603   MPKI: 0.00014
PSCL3 LOAD TRANSLATION ACCESS:       5910  HIT:       5903  MISS:          7  HIT %:    99.8816  MISS %:   0.118443   MPKI: 0.00014
PSCL3 TRANSLATION FROM L1D PREFETCHER ACCESS:      60109  HIT:      60109  MISS:          0  HIT %:        100  MISS %:          0   MPKI: 0
PSCL3 PREFETCH  REQUESTED:          0  ISSUED:          0  USEFUL:          0  USELESS:          0
PSCL3 USEFUL LOAD PREFETCHES:          0 PREFETCH ISSUED TO LOWER LEVEL:          0  ACCURACY: -nan
PSCL3 TIMELY PREFETCHES:          0 LATE PREFETCHES: 0 DROPPED PREFETCHES: 0
PSCL3 PREFETCHES SAME FILL-ORIGIN LEVEL: 0 DIFFERENT FILL-ORIGIN LEVEL: 0

PSCL2 TOTAL     ACCESS:      66027  HIT:      64515  MISS:       1512  HIT %:      97.71  MISS %:    2.28997   MPKI: 0.03024
PSCL2 LOAD TRANSLATION ACCESS:       7052  HIT:       5540  MISS:       1512  HIT %:    78.5593  MISS %:    21.4407   MPKI: 0.03024
PSCL2 TRANSLATION FROM L1D PREFETCHER ACCESS:      58975  HIT:      58975  MISS:          0  HIT %:        100  MISS %:          0   MPKI: 0
PSCL2 PREFETCH  REQUESTED:          0  ISSUED:          0  USEFUL:          0  USELESS:          0
PSCL2 USEFUL LOAD PREFETCHES:          0 PREFETCH ISSUED TO LOWER LEVEL:          0  ACCURACY: -nan
PSCL2 TIMELY PREFETCHES:          0 LATE PREFETCHES: 0 DROPPED PREFETCHES: 0
PSCL2 PREFETCHES SAME FILL-ORIGIN LEVEL: 0 DIFFERENT FILL-ORIGIN LEVEL: 0

LLC TOTAL     ACCESS:    3673025  HIT:      25716  MISS:    3647309  HIT %:   0.700131  MISS %:    99.2999   MPKI: 72.9462
LLC LOAD      ACCESS:      47550  HIT:       1347  MISS:      46203  HIT %:    2.83281  MISS %:    97.1672   MPKI: 0.92406
LLC RFO       ACCESS:         63  HIT:          0  MISS:         63  HIT %:          0  MISS %:        100   MPKI: 0.00126
LLC PREFETCH  ACCESS:    3604038  HIT:      17801  MISS:    3586237  HIT %:   0.493918  MISS %:    99.5061   MPKI: 71.7247
AGUS PREFETCH L1 MISS: 0
LLC WRITEBACK ACCESS:       5757  HIT:       5673  MISS:         84  HIT %:    98.5409  MISS %:    1.45909   MPKI: 0.00168
LLC LOAD TRANSLATION ACCESS:       2804  HIT:        389  MISS:       2415  HIT %:     13.873  MISS %:     86.127   MPKI: 0.0483
LLC TRANSLATION FROM L1D PREFETCHER ACCESS:      12813  HIT:        506  MISS:      12307  HIT %:    3.94911  MISS %:    96.0509   MPKI: 0.24614
LLC PREFETCH  REQUESTED:          0  ISSUED:          0  USEFUL:        515  USELESS:    3597516
LLC USEFUL LOAD PREFETCHES:        515 PREFETCH ISSUED TO LOWER LEVEL:    3586240  ACCURACY: 0.0143604
LLC TIMELY PREFETCHES:        515 LATE PREFETCHES: 0 DROPPED PREFETCHES: 0
LLC PREFETCHES SAME FILL-ORIGIN LEVEL: 0 DIFFERENT FILL-ORIGIN LEVEL: 0
LLC AVERAGE MISS LATENCY: 82.6092 cycles
LLC RQ	ACCESS:      63230	FORWARD:          0	MERGED:          0	TO_CACHE:      63230
LLC WQ	ACCESS:       5757	FORWARD:          0	MERGED:          0	TO_CACHE:       5757
LLC PQ	ACCESS:    3604043	FORWARD:          0	MERGED:          0	TO_CACHE:    3604043

LLC Dense regions hint to LLC: 0

RAW hits: 3921
Loads Generated: 17954602
Loads sent to L1D: 17950681
Stores Generated: 726205
Stores sent to L1D: 726205
Major fault: 0 Minor fault: 48887
Allocated PAGES: 48887

stream: 
stream:times selected: 15041132
stream:pref_reqs: 84921302
stream:pref_reqs_filtered_out: 76622299
stream:pref_filled: 6023631
stream:pref_useful: 5623154
stream:pref_late: 142653
stream:misses: 8022
stream:misses_by_poll: 0

CS: 
CS:times selected: 11377887
CS:pref_reqs: 33591760
CS:pref_reqs_filtered_out: 32927646
CS:pref_filled: 44016
CS:pref_useful: 42837
CS:pref_late: 12386
CS:misses: 278237
CS:misses_by_poll: 281

CPLX: 
CPLX:times selected: 3659957
CPLX:pref_reqs: 7343435
CPLX:pref_reqs_filtered_out: 6063455
CPLX:pref_filled: 984357
CPLX:pref_useful: 843033
CPLX:pref_late: 13947
CPLX:misses: 64767
CPLX:misses_by_poll: 10213

ISB: 
ISB:total access:20484513
ISB:times selected:282615
ISB:canary counter:0
ISB:pref_reqs: 1130508
ISB:pref_reqs_filtered_out: 483066
ISB:pref_filled: 181996
ISB:pref_useful: 177093
ISB:pref_late: 532
ISB:misses: 82586
ISB:misses_by_poll: 492
ISB:Stream end: 100942
ISB:No Prediction: 14758519 72.0472
ISB:No translation: 89165345 435.282
ISB:Predictions: 423679 2.06829

NL_L1: 
NL:times selected: 1875
NL:pref_reqs: 1875
NL:pref_reqs_filtered_out: 1498
NL:pref_filled: 91
NL:pref_useful: 74
NL:pref_late: 90
NL:misses: 185
NL:misses_by_poll: 0

Coverage: 93.8841
total selections: 30363466
total_filled: 3591572
total_useful: 3307153
total_late: 172924
total_polluted: 10986
total_misses_after_warmup: 280606
conflicts: 63026

test: 0
Prefetcher final stats
Training Unit Size: 25
Addr table size: 282011 282012
Stream divergence: 20466 0.0999096
Stream divergence -- new stream: 0
--------------------------Training unit table ------------------------

DRAM Statistics
 CHANNEL 0
 RQ ROW_BUFFER_HIT:    3310431  ROW_BUFFER_MISS:     336795
 DBUS_CONGESTED:       1344
 WQ ROW_BUFFER_HIT:        886  ROW_BUFFER_MISS:       4811  FULL:          0

 AVG_CONGESTED_CYCLE: 4
 All warmup complete: 2
Channel 0 Bank busy for read cycles: 0
Channel 0 Bank busy for write cycles: 0
Channel 0
Rank 0
0banks busy for read cycles: 32015902
0banks busy for write cycles: 2937
1banks busy for read cycles: 27887215
1banks busy for write cycles: 1010002
2banks busy for read cycles: 38801550
2banks busy for write cycles: 363165
3banks busy for read cycles: 18585170
3banks busy for write cycles: 161026
4banks busy for read cycles: 4945163
4banks busy for write cycles: 91741
5banks busy for read cycles: 2068771
5banks busy for write cycles: 43426
6banks busy for read cycles: 1866555
6banks busy for write cycles: 20368
7banks busy for read cycles: 1480269
7banks busy for write cycles: 4180
8banks busy for read cycles: 389929
8banks busy for write cycles: 2672

CPU 0 Branch Prediction Accuracy: 99.1302% MPKI: 3.1024 Average ROB Occupancy at Mispredict: 96.663
Branch types
NOT_BRANCH: 32166917 64.3338%
BRANCH_DIRECT_JUMP: 168848 0.337696%
BRANCH_INDIRECT: 0 0%
BRANCH_CONDITIONAL: 17497543 34.9951%
BRANCH_DIRECT_CALL: 83355 0.16671%
BRANCH_INDIRECT_CALL: 0 0%
BRANCH_RETURN: 83355 0.16671%
BRANCH_OTHER: 0 0%

DRAM PAGES: 1048576
Allocated PAGES: 48887
