
*** ChampSim Multicore Out-of-Order Simulator ***

Warmup Instructions: 50000000
Simulation Instructions: 50000000
Number of CPUs: 1
LLC sets: 2048
LLC ways: 16
Off-chip DRAM Size: 4096 MB Channels: 1 Width: 64-bit Data Rate: 6400 MT/s
CPU 0 runs ./traces/SPEC-CPU2017/625.x264_s-12B.champsimtrace.xz
.xz
CPU 0 Bimodal branch predictor
BTB has LRU replacement policy
ITLB has LRU replacement policy
DTLB has LRU replacement policy
STLB has LRU replacement policy
L1I has LRU replacement policy
L1D has LRU replacement policy
L2C has LRU replacement policy
LLC has LRU replacement policy
Heartbeat CPU 0 instructions: 10000001 cycles: 2776606 heartbeat IPC: 3.60152 cumulative IPC: 3.60152 (Simulation time: 0 hr 0 min 29 sec) 
Heartbeat CPU 0 instructions: 20000000 cycles: 5565825 heartbeat IPC: 3.58523 cumulative IPC: 3.59336 (Simulation time: 0 hr 0 min 59 sec) 
Heartbeat CPU 0 instructions: 30000001 cycles: 8351534 heartbeat IPC: 3.58975 cumulative IPC: 3.59215 (Simulation time: 0 hr 1 min 28 sec) 
Heartbeat CPU 0 instructions: 40000000 cycles: 11137368 heartbeat IPC: 3.58959 cumulative IPC: 3.59151 (Simulation time: 0 hr 1 min 58 sec) 
Heartbeat CPU 0 instructions: 50000001 cycles: 13925840 heartbeat IPC: 3.58619 cumulative IPC: 3.59045 (Simulation time: 0 hr 2 min 28 sec) 

Warmup complete CPU 0 instructions: 50000001 cycles: 13925840 (Simulation time: 0 hr 2 min 28 sec) 

Heartbeat CPU 0 instructions: 60000000 cycles: 25289960 heartbeat IPC: 0.879962 cumulative IPC: 0.879962 (Simulation time: 0 hr 2 min 59 sec) 
Heartbeat CPU 0 instructions: 70000001 cycles: 36900087 heartbeat IPC: 0.861317 cumulative IPC: 0.87054 (Simulation time: 0 hr 3 min 30 sec) 
Heartbeat CPU 0 instructions: 80000000 cycles: 48404290 heartbeat IPC: 0.869247 cumulative IPC: 0.870109 (Simulation time: 0 hr 4 min 0 sec) 
Heartbeat CPU 0 instructions: 90000002 cycles: 59927588 heartbeat IPC: 0.867807 cumulative IPC: 0.869532 (Simulation time: 0 hr 4 min 31 sec) 
Heartbeat CPU 0 instructions: 100000000 cycles: 71511994 heartbeat IPC: 0.863229 cumulative IPC: 0.868264 (Simulation time: 0 hr 5 min 2 sec) 
Finished CPU 0 instructions: 50000001 cycles: 57586162 cumulative IPC: 0.868264 (Simulation time: 0 hr 5 min 2 sec) 

ChampSim completed all CPUs

Region of Interest Statistics

CPU 0 cumulative IPC: 0.868264 instructions: 50000001 cycles: 57586162
ITLB TOTAL     ACCESS:    7170911  HIT:    7170910  MISS:          1  HIT %:        100  MISS %: 1.39452e-05   MPKI: 2e-05
ITLB LOAD TRANSLATION ACCESS:    7170911  HIT:    7170910  MISS:          1  HIT %:        100  MISS %: 1.39452e-05   MPKI: 2e-05
ITLB PREFETCH  REQUESTED:          0  ISSUED:          0  USEFUL:          0  USELESS:          0
ITLB USEFUL LOAD PREFETCHES:          0 PREFETCH ISSUED TO LOWER LEVEL:          0  ACCURACY: -nan
ITLB TIMELY PREFETCHES:          0 LATE PREFETCHES: 0 DROPPED PREFETCHES: 0
ITLB PREFETCHES SAME FILL-ORIGIN LEVEL: 0 DIFFERENT FILL-ORIGIN LEVEL: 0
ITLB AVERAGE MISS LATENCY: 150 cycles
ITLB RQ	ACCESS:    8838587	FORWARD:          0	MERGED:    1667676	TO_CACHE:    7170911

DTLB TOTAL     ACCESS:    6336515  HIT:    6325904  MISS:      10611  HIT %:    99.8325  MISS %:   0.167458   MPKI: 0.21222
DTLB LOAD TRANSLATION ACCESS:    6336515  HIT:    6325904  MISS:      10611  HIT %:    99.8325  MISS %:   0.167458   MPKI: 0.21222
DTLB PREFETCH  REQUESTED:          0  ISSUED:          0  USEFUL:          0  USELESS:          0
DTLB USEFUL LOAD PREFETCHES:          0 PREFETCH ISSUED TO LOWER LEVEL:          0  ACCURACY: -nan
DTLB TIMELY PREFETCHES:          0 LATE PREFETCHES: 0 DROPPED PREFETCHES: 0
DTLB PREFETCHES SAME FILL-ORIGIN LEVEL: 0 DIFFERENT FILL-ORIGIN LEVEL: 0
DTLB AVERAGE MISS LATENCY: 11.3366 cycles
DTLB RQ	ACCESS:    7651693	FORWARD:          0	MERGED:    1313740	TO_CACHE:    6337953

STLB TOTAL     ACCESS:      10612  HIT:      10459  MISS:        153  HIT %:    98.5582  MISS %:    1.44176   MPKI: 0.00306
STLB LOAD TRANSLATION ACCESS:      10612  HIT:      10459  MISS:        153  HIT %:    98.5582  MISS %:    1.44176   MPKI: 0.00306
STLB PREFETCH  REQUESTED:          0  ISSUED:          0  USEFUL:          0  USELESS:          0
STLB USEFUL LOAD PREFETCHES:          0 PREFETCH ISSUED TO LOWER LEVEL:          0  ACCURACY: -nan
STLB TIMELY PREFETCHES:          0 LATE PREFETCHES: 0 DROPPED PREFETCHES: 0
STLB PREFETCHES SAME FILL-ORIGIN LEVEL: 0 DIFFERENT FILL-ORIGIN LEVEL: 0
STLB AVERAGE MISS LATENCY: 160.235 cycles
STLB RQ	ACCESS:      10612	FORWARD:          0	MERGED:          0	TO_CACHE:      10612

STLB Hit, L1D data hit: 0
STLB Hit, L2C data hit: 0
STLB Hit, LLC data hit: 0
STLB Hit, LLC data miss: 0
STLB STLB hints to L2: 0
L1D TOTAL     ACCESS:    7644755  HIT:    7626403  MISS:      18352  HIT %:    99.7599  MISS %:    0.24006   MPKI: 0.36704
L1D LOAD      ACCESS:    4496395  HIT:    4478533  MISS:      17862  HIT %:    99.6027  MISS %:   0.397252   MPKI: 0.35724
L1D RFO       ACCESS:    3148360  HIT:    3147870  MISS:        490  HIT %:    99.9844  MISS %:  0.0155637   MPKI: 0.0098
L1D PREFETCH  REQUESTED:          0  ISSUED:          0  USEFUL:          0  USELESS:          0
L1D USEFUL LOAD PREFETCHES:          0 PREFETCH ISSUED TO LOWER LEVEL:          0  ACCURACY: -nan
L1D TIMELY PREFETCHES:          0 LATE PREFETCHES: 0 DROPPED PREFETCHES: 0
L1D PREFETCHES SAME FILL-ORIGIN LEVEL: 0 DIFFERENT FILL-ORIGIN LEVEL: 0
L1D AVERAGE MISS LATENCY: 78.8384 cycles
L1D RQ	ACCESS:   12029889	FORWARD:          0	MERGED:    7507694	TO_CACHE:    4503178
L1D WQ	ACCESS:    3150756	FORWARD:      19017	MERGED:       2241	TO_CACHE:    3148515

L1D UNIQUE REGIONS ACCESSED: 0
L1D REGIONS CONFLICTS: 0
L1D Cross Page Prefetch Requests: 0
L1D Same Page Prefetch Requests: 0
L1D ROI Sum of L1D PQ occupancy: 0
L1D PREFETCHES PUSHED FROM L2C: 0
L1I TOTAL     ACCESS:    8838577  HIT:    8838547  MISS:         30  HIT %:    99.9997  MISS %: 0.000339421   MPKI: 0.0006
L1I LOAD      ACCESS:    8838577  HIT:    8838547  MISS:         30  HIT %:    99.9997  MISS %: 0.000339421   MPKI: 0.0006
L1I PREFETCH  REQUESTED:          0  ISSUED:          0  USEFUL:          0  USELESS:          0
L1I USEFUL LOAD PREFETCHES:          0 PREFETCH ISSUED TO LOWER LEVEL:          0  ACCURACY: -nan
L1I TIMELY PREFETCHES:          0 LATE PREFETCHES: 0 DROPPED PREFETCHES: 0
L1I PREFETCHES SAME FILL-ORIGIN LEVEL: 0 DIFFERENT FILL-ORIGIN LEVEL: 0
L1I AVERAGE MISS LATENCY: 174.633 cycles
L1I RQ	ACCESS:   12161623	FORWARD:          0	MERGED:    3323036	TO_CACHE:    8838587

BTB TOTAL     ACCESS:    1864249  HIT:    1740734  MISS:     123515  HIT %:    93.3745  MISS %:    6.62546   MPKI: 2.4703
BTB BRANCH_DIRECT_JUMP	ACCESS:      36659  HIT:      36640  MISS:         19
BTB BRANCH_INDIRECT	ACCESS:       3046  HIT:       3045  MISS:          1
BTB BRANCH_CONDITIONAL	ACCESS:    1548181  HIT:    1548108  MISS:         73
BTB BRANCH_DIRECT_CALL	ACCESS:      71241  HIT:      71231  MISS:         10
BTB BRANCH_INDIRECT_CALL	ACCESS:      66940  HIT:      66909  MISS:         31
BTB BRANCH_RETURN	ACCESS:     138182  HIT:      14801  MISS:     123381
BTB BRANCH_OTHER ACCESS:          0  HIT:          0  MISS:          0

L2C TOTAL     ACCESS:      19027  HIT:       4717  MISS:      14310  HIT %:    24.7911  MISS %:    75.2089   MPKI: 0.2862
L2C LOAD      ACCESS:      17892  HIT:       4093  MISS:      13799  HIT %:    22.8761  MISS %:    77.1239   MPKI: 0.27598
L2C DATA LOAD MPKI: 0.27538
L2C INSTRUCTION LOAD MPKI: 0.0006
L2C RFO       ACCESS:        490  HIT:         27  MISS:        463  HIT %:     5.5102  MISS %:    94.4898   MPKI: 0.00926
L2C WRITEBACK ACCESS:        492  HIT:        475  MISS:         17  HIT %:    96.5447  MISS %:    3.45528   MPKI: 0.00034
L2C LOAD TRANSLATION ACCESS:        153  HIT:        122  MISS:         31  HIT %:    79.7386  MISS %:    20.2614   MPKI: 0.00062
L2C PREFETCH  REQUESTED:          0  ISSUED:          0  USEFUL:          0  USELESS:          0
L2C USEFUL LOAD PREFETCHES:          0 PREFETCH ISSUED TO LOWER LEVEL:          0  ACCURACY: -nan
L2C TIMELY PREFETCHES:          0 LATE PREFETCHES: 0 DROPPED PREFETCHES: 0
L2C PREFETCHES SAME FILL-ORIGIN LEVEL: 0 DIFFERENT FILL-ORIGIN LEVEL: 0
L2C AVERAGE MISS LATENCY: 82.286 cycles
L2C RQ	ACCESS:      18535	FORWARD:          0	MERGED:          0	TO_CACHE:      18535
L2C WQ	ACCESS:        492	FORWARD:          0	MERGED:          0	TO_CACHE:        492

L2C Instructions Evicting Data 30
L2C Translations Evicting Data 31
L2C Data Evicting Data 14177
L2C Instructions Evicting Instructions 0
L2C Translations Evicting Instructions 0
L2C Data Evicting Instructions 23
L2C Instructions Evicting Translations 0
L2C Translations Evicting Translations 0
L2C Data Evicting Translations 32
L2C Dense regions hint from L2: 0
PSCL5 TOTAL     ACCESS:        153  HIT:        153  MISS:          0  HIT %:        100  MISS %:          0   MPKI: 0
PSCL5 LOAD TRANSLATION ACCESS:        153  HIT:        153  MISS:          0  HIT %:        100  MISS %:          0   MPKI: 0
PSCL5 PREFETCH  REQUESTED:          0  ISSUED:          0  USEFUL:          0  USELESS:          0
PSCL5 USEFUL LOAD PREFETCHES:          0 PREFETCH ISSUED TO LOWER LEVEL:          0  ACCURACY: -nan
PSCL5 TIMELY PREFETCHES:          0 LATE PREFETCHES: 0 DROPPED PREFETCHES: 0
PSCL5 PREFETCHES SAME FILL-ORIGIN LEVEL: 0 DIFFERENT FILL-ORIGIN LEVEL: 0

PSCL4 TOTAL     ACCESS:        153  HIT:        153  MISS:          0  HIT %:        100  MISS %:          0   MPKI: 0
PSCL4 LOAD TRANSLATION ACCESS:        153  HIT:        153  MISS:          0  HIT %:        100  MISS %:          0   MPKI: 0
PSCL4 PREFETCH  REQUESTED:          0  ISSUED:          0  USEFUL:          0  USELESS:          0
PSCL4 USEFUL LOAD PREFETCHES:          0 PREFETCH ISSUED TO LOWER LEVEL:          0  ACCURACY: -nan
PSCL4 TIMELY PREFETCHES:          0 LATE PREFETCHES: 0 DROPPED PREFETCHES: 0
PSCL4 PREFETCHES SAME FILL-ORIGIN LEVEL: 0 DIFFERENT FILL-ORIGIN LEVEL: 0

PSCL3 TOTAL     ACCESS:        153  HIT:        153  MISS:          0  HIT %:        100  MISS %:          0   MPKI: 0
PSCL3 LOAD TRANSLATION ACCESS:        153  HIT:        153  MISS:          0  HIT %:        100  MISS %:          0   MPKI: 0
PSCL3 PREFETCH  REQUESTED:          0  ISSUED:          0  USEFUL:          0  USELESS:          0
PSCL3 USEFUL LOAD PREFETCHES:          0 PREFETCH ISSUED TO LOWER LEVEL:          0  ACCURACY: -nan
PSCL3 TIMELY PREFETCHES:          0 LATE PREFETCHES: 0 DROPPED PREFETCHES: 0
PSCL3 PREFETCHES SAME FILL-ORIGIN LEVEL: 0 DIFFERENT FILL-ORIGIN LEVEL: 0

PSCL2 TOTAL     ACCESS:        153  HIT:        152  MISS:          1  HIT %:    99.3464  MISS %:   0.653595   MPKI: 2e-05
PSCL2 LOAD TRANSLATION ACCESS:        153  HIT:        152  MISS:          1  HIT %:    99.3464  MISS %:   0.653595   MPKI: 2e-05
PSCL2 PREFETCH  REQUESTED:          0  ISSUED:          0  USEFUL:          0  USELESS:          0
PSCL2 USEFUL LOAD PREFETCHES:          0 PREFETCH ISSUED TO LOWER LEVEL:          0  ACCURACY: -nan
PSCL2 TIMELY PREFETCHES:          0 LATE PREFETCHES: 0 DROPPED PREFETCHES: 0
PSCL2 PREFETCHES SAME FILL-ORIGIN LEVEL: 0 DIFFERENT FILL-ORIGIN LEVEL: 0

LLC TOTAL     ACCESS:      14774  HIT:       7661  MISS:       7113  HIT %:    51.8546  MISS %:    48.1454   MPKI: 0.14226
LLC LOAD      ACCESS:      13799  HIT:       7175  MISS:       6624  HIT %:    51.9965  MISS %:    48.0035   MPKI: 0.13248
LLC RFO       ACCESS:        463  HIT:          1  MISS:        462  HIT %:   0.215983  MISS %:     99.784   MPKI: 0.00924
LLC WRITEBACK ACCESS:        481  HIT:        481  MISS:          0  HIT %:        100  MISS %:          0   MPKI: 0
LLC LOAD TRANSLATION ACCESS:         31  HIT:          4  MISS:         27  HIT %:    12.9032  MISS %:    87.0968   MPKI: 0.00054
LLC PREFETCH  REQUESTED:          0  ISSUED:          0  USEFUL:          0  USELESS:          0
LLC USEFUL LOAD PREFETCHES:          0 PREFETCH ISSUED TO LOWER LEVEL:          0  ACCURACY: -nan
LLC TIMELY PREFETCHES:          0 LATE PREFETCHES: 0 DROPPED PREFETCHES: 0
LLC PREFETCHES SAME FILL-ORIGIN LEVEL: 0 DIFFERENT FILL-ORIGIN LEVEL: 0
LLC AVERAGE MISS LATENCY: 105.086 cycles
LLC RQ	ACCESS:      14293	FORWARD:          0	MERGED:          0	TO_CACHE:      14293
LLC WQ	ACCESS:        481	FORWARD:          0	MERGED:          0	TO_CACHE:        481

LLC Dense regions hint to LLC: 0

RAW hits: 111413
Loads Generated: 12141302
Loads sent to L1D: 12029889
Stores Generated: 3150752
Stores sent to L1D: 3150756
Major fault: 0 Minor fault: 474
Allocated PAGES: 474

DRAM Statistics
 CHANNEL 0
 RQ ROW_BUFFER_HIT:       4717  ROW_BUFFER_MISS:       2396
 DBUS_CONGESTED:          0
 WQ ROW_BUFFER_HIT:          0  ROW_BUFFER_MISS:          0  FULL:          0

 AVG_CONGESTED_CYCLE: -
 All warmup complete: 2
Channel 0 Bank busy for read cycles: 0
Channel 0 Bank busy for write cycles: 0
Channel 0
Rank 0
0banks busy for read cycles: 57177139
0banks busy for write cycles: 0
1banks busy for read cycles: 295164
1banks busy for write cycles: 0
2banks busy for read cycles: 71441
2banks busy for write cycles: 0
3banks busy for read cycles: 33163
3banks busy for write cycles: 0
4banks busy for read cycles: 1545
4banks busy for write cycles: 0
5banks busy for read cycles: 1960
5banks busy for write cycles: 0
6banks busy for read cycles: 1102
6banks busy for write cycles: 0
7banks busy for read cycles: 2068
7banks busy for write cycles: 0
8banks busy for read cycles: 2581
8banks busy for write cycles: 0

CPU 0 Branch Prediction Accuracy: 88.47% MPKI: 4.83304 Average ROB Occupancy at Mispredict: 36.5761
Branch types
NOT_BRANCH: 47903889 95.8078%
BRANCH_DIRECT_JUMP: 36659 0.073318%
BRANCH_INDIRECT: 3046 0.006092%
BRANCH_CONDITIONAL: 1779789 3.55958%
BRANCH_DIRECT_CALL: 71241 0.142482%
BRANCH_INDIRECT_CALL: 66940 0.13388%
BRANCH_RETURN: 138182 0.276364%
BRANCH_OTHER: 0 0%

DRAM PAGES: 1048576
Allocated PAGES: 474
