
*** ChampSim Multicore Out-of-Order Simulator ***

Warmup Instructions: 50000000
Simulation Instructions: 50000000
Number of CPUs: 1
LLC sets: 2048
LLC ways: 16
Off-chip DRAM Size: 4096 MB Channels: 1 Width: 64-bit Data Rate: 6400 MT/s
CPU 0 runs traces/SPEC-CPU2017/649.fotonik3d_s-10881B.champsimtrace.xz
.xz
CPU 0 Bimodal branch predictor
BTB has LRU replacement policy
ITLB has LRU replacement policy
DTLB has LRU replacement policy
STLB has LRU replacement policy
L1I has LRU replacement policy
L1D has LRU replacement policy
L2C has LRU replacement policy
LLC has LRU replacement policy
Heartbeat CPU 0 instructions: 10000002 cycles: 5237573 heartbeat IPC: 1.90928 cumulative IPC: 1.90928 (Simulation time: 0 hr 6 min 28 sec) 
Heartbeat CPU 0 instructions: 20000000 cycles: 10482859 heartbeat IPC: 1.90647 cumulative IPC: 1.90788 (Simulation time: 0 hr 12 min 57 sec) 
Heartbeat CPU 0 instructions: 30000000 cycles: 15738702 heartbeat IPC: 1.90264 cumulative IPC: 1.90613 (Simulation time: 0 hr 19 min 26 sec) 
Heartbeat CPU 0 instructions: 40000000 cycles: 20977847 heartbeat IPC: 1.90871 cumulative IPC: 1.90677 (Simulation time: 0 hr 25 min 54 sec) 
Heartbeat CPU 0 instructions: 50000000 cycles: 26203137 heartbeat IPC: 1.91377 cumulative IPC: 1.90817 (Simulation time: 0 hr 32 min 22 sec) 

Warmup complete CPU 0 instructions: 50000003 cycles: 26203138 (Simulation time: 0 hr 32 min 22 sec) 

Heartbeat CPU 0 instructions: 60000000 cycles: 44729453 heartbeat IPC: 0.539773 cumulative IPC: 0.539773 (Simulation time: 0 hr 33 min 27 sec) 
Heartbeat CPU 0 instructions: 70000000 cycles: 63805664 heartbeat IPC: 0.524213 cumulative IPC: 0.531879 (Simulation time: 0 hr 34 min 33 sec) 
Heartbeat CPU 0 instructions: 80000000 cycles: 82630060 heartbeat IPC: 0.531226 cumulative IPC: 0.531661 (Simulation time: 0 hr 35 min 38 sec) 
Heartbeat CPU 0 instructions: 90000003 cycles: 101352268 heartbeat IPC: 0.534125 cumulative IPC: 0.532275 (Simulation time: 0 hr 36 min 44 sec) 
Heartbeat CPU 0 instructions: 100000000 cycles: 119899355 heartbeat IPC: 0.539168 cumulative IPC: 0.533639 (Simulation time: 0 hr 37 min 49 sec) 
Finished CPU 0 instructions: 50000000 cycles: 93696234 cumulative IPC: 0.533639 (Simulation time: 0 hr 37 min 49 sec) 

ChampSim completed all CPUs

Region of Interest Statistics

CPU 0 cumulative IPC: 0.533639 instructions: 50000000 cycles: 93696234
ITLB TOTAL     ACCESS:    7740084  HIT:    7740084  MISS:          0  HIT %:        100  MISS %:          0   MPKI: 0
ITLB LOAD TRANSLATION ACCESS:    7740084  HIT:    7740084  MISS:          0  HIT %:        100  MISS %:          0   MPKI: 0
ITLB PREFETCH  REQUESTED:          0  ISSUED:          0  USEFUL:          0  USELESS:          0
ITLB USEFUL LOAD PREFETCHES:          0 PREFETCH ISSUED TO LOWER LEVEL:          0  ACCURACY: -nan
ITLB TIMELY PREFETCHES:          0 LATE PREFETCHES: 0 DROPPED PREFETCHES: 0
ITLB PREFETCHES SAME FILL-ORIGIN LEVEL: 0 DIFFERENT FILL-ORIGIN LEVEL: 0
ITLB AVERAGE MISS LATENCY: -nan cycles
ITLB RQ	ACCESS:    8668669	FORWARD:          0	MERGED:     928585	TO_CACHE:    7740084

DTLB TOTAL     ACCESS:   21337130  HIT:   21072251  MISS:     264879  HIT %:    98.7586  MISS %:     1.2414   MPKI: 5.29758
DTLB LOAD TRANSLATION ACCESS:   21337130  HIT:   21072251  MISS:     264879  HIT %:    98.7586  MISS %:     1.2414   MPKI: 5.29758
DTLB PREFETCH  REQUESTED:          0  ISSUED:          0  USEFUL:          0  USELESS:          0
DTLB USEFUL LOAD PREFETCHES:          0 PREFETCH ISSUED TO LOWER LEVEL:          0  ACCURACY: -nan
DTLB TIMELY PREFETCHES:          0 LATE PREFETCHES: 0 DROPPED PREFETCHES: 0
DTLB PREFETCHES SAME FILL-ORIGIN LEVEL: 0 DIFFERENT FILL-ORIGIN LEVEL: 0
DTLB AVERAGE MISS LATENCY: 164.811 cycles
DTLB RQ	ACCESS:   23858378	FORWARD:          0	MERGED:    2507207	TO_CACHE:   21351171

STLB TOTAL     ACCESS:    1196340  HIT:    1026687  MISS:     169653  HIT %:     85.819  MISS %:     14.181   MPKI: 3.39306
STLB LOAD TRANSLATION ACCESS:     264879  HIT:      95229  MISS:     169650  HIT %:    35.9519  MISS %:    64.0481   MPKI: 3.393
STLB TRANSLATION FROM L1D PREFETCHER ACCESS:     931461  HIT:     931458  MISS:          3  HIT %:    99.9997  MISS %: 0.000322075   MPKI: 6e-05
STLB PREFETCH  REQUESTED:          0  ISSUED:          0  USEFUL:          1  USELESS:          2
STLB USEFUL LOAD PREFETCHES:          1 PREFETCH ISSUED TO LOWER LEVEL:          0  ACCURACY: inf
STLB TIMELY PREFETCHES:          1 LATE PREFETCHES: 0 DROPPED PREFETCHES: 0
STLB PREFETCHES SAME FILL-ORIGIN LEVEL: 0 DIFFERENT FILL-ORIGIN LEVEL: 0
STLB AVERAGE MISS LATENCY: 224.034 cycles
STLB RQ	ACCESS:    1368474	FORWARD:          0	MERGED:     172134	TO_CACHE:    1196340

STLB Hit, L1D data hit: 0
STLB Hit, L2C data hit: 0
STLB Hit, LLC data hit: 0
STLB Hit, LLC data miss: 0
STLB STLB hints to L2: 0
L1D TOTAL     ACCESS:   24823587  HIT:   23541690  MISS:    1281897  HIT %:     94.836  MISS %:    5.16403   MPKI: 25.6379
L1D LOAD      ACCESS:   20531220  HIT:   20039066  MISS:     492154  HIT %:    97.6029  MISS %:     2.3971   MPKI: 9.84308
L1D RFO       ACCESS:    3205648  HIT:    3205648  MISS:          0  HIT %:        100  MISS %:          0   MPKI: 0
L1D PREFETCH  ACCESS:    1086719  HIT:     296976  MISS:     789743  HIT %:    27.3278  MISS %:    72.6722   MPKI: 15.7949
AGUS PREFETCH L1 MISS: 0
L1D PREFETCH  REQUESTED:    2208271  ISSUED:    2207190  USEFUL:     469847  USELESS:     319889
L1D USEFUL LOAD PREFETCHES:     469847 PREFETCH ISSUED TO LOWER LEVEL:     799870  ACCURACY: 58.7404
L1D TIMELY PREFETCHES:     469847 LATE PREFETCHES: 10127 DROPPED PREFETCHES: 0
L1D PREFETCHES SAME FILL-ORIGIN LEVEL: 799870 DIFFERENT FILL-ORIGIN LEVEL: 0
L1D AVERAGE MISS LATENCY: 215.715 cycles
L1D RQ	ACCESS:   31925565	FORWARD:          0	MERGED:   11264609	TO_CACHE:   20652730
L1D WQ	ACCESS:    3205648	FORWARD:       8226	MERGED:          0	TO_CACHE:    3205648
L1D PQ	ACCESS:    1103595	FORWARD:          0	MERGED:          0	TO_CACHE:    1103595

L1D UNIQUE REGIONS ACCESSED: 0
L1D REGIONS CONFLICTS: 0
L1D Cross Page Prefetch Requests: 0
L1D Same Page Prefetch Requests: 2195876
L1D ROI Sum of L1D PQ occupancy: 14444606
L1D PREFETCHES PUSHED FROM L2C: 0
L1I TOTAL     ACCESS:    8668669  HIT:    8668669  MISS:          0  HIT %:        100  MISS %:          0   MPKI: 0
L1I LOAD      ACCESS:    8668669  HIT:    8668669  MISS:          0  HIT %:        100  MISS %:          0   MPKI: 0
L1I PREFETCH  REQUESTED:          0  ISSUED:          0  USEFUL:          0  USELESS:          0
L1I USEFUL LOAD PREFETCHES:          0 PREFETCH ISSUED TO LOWER LEVEL:          0  ACCURACY: -nan
L1I TIMELY PREFETCHES:          0 LATE PREFETCHES: 0 DROPPED PREFETCHES: 0
L1I PREFETCHES SAME FILL-ORIGIN LEVEL: 0 DIFFERENT FILL-ORIGIN LEVEL: 0
L1I AVERAGE MISS LATENCY: -nan cycles
L1I RQ	ACCESS:   14967283	FORWARD:          0	MERGED:    6298614	TO_CACHE:    8668669

BTB TOTAL     ACCESS:     560941  HIT:     560936  MISS:          5  HIT %:    99.9991  MISS %: 0.000891359   MPKI: 0.0001
BTB BRANCH_DIRECT_JUMP	ACCESS:      40061  HIT:      40060  MISS:          1
BTB BRANCH_INDIRECT	ACCESS:          0  HIT:          0  MISS:          0
BTB BRANCH_CONDITIONAL	ACCESS:     520880  HIT:     520876  MISS:          4
BTB BRANCH_DIRECT_CALL	ACCESS:          0  HIT:          0  MISS:          0
BTB BRANCH_INDIRECT_CALL	ACCESS:          0  HIT:          0  MISS:          0
BTB BRANCH_RETURN	ACCESS:          0  HIT:          0  MISS:          0
BTB BRANCH_OTHER ACCESS:          0  HIT:          0  MISS:          0

L2C TOTAL     ACCESS:    1937344  HIT:     638733  MISS:    1298611  HIT %:    32.9695  MISS %:    67.0305   MPKI: 25.9722
L2C LOAD      ACCESS:     482027  HIT:        151  MISS:     481876  HIT %:   0.031326  MISS %:    99.9687   MPKI: 9.63752
L2C DATA LOAD MPKI: 9.63752
L2C INSTRUCTION LOAD MPKI: 0
L2C PREFETCH  ACCESS:     799870  HIT:       4835  MISS:     795035  HIT %:   0.604473  MISS %:    99.3955   MPKI: 15.9007
AGUS PREFETCH L1 MISS: 0
L2C DATA PREFETCH MPKI: 15.9007
L2C INSTRUCTION PREFETCH MPKI: 0
L2C WRITEBACK ACCESS:     485742  HIT:     485742  MISS:          0  HIT %:        100  MISS %:          0   MPKI: 0
L2C LOAD TRANSLATION ACCESS:     169702  HIT:     148005  MISS:      21697  HIT %:    87.2146  MISS %:    12.7854   MPKI: 0.43394
L2C TRANSLATION FROM L1D PREFETCHER ACCESS:          3  HIT:          0  MISS:          3  HIT %:          0  MISS %:        100   MPKI: 6e-05
L2C PREFETCH  REQUESTED:          0  ISSUED:          0  USEFUL:        154  USELESS:     794728
L2C USEFUL LOAD PREFETCHES:        154 PREFETCH ISSUED TO LOWER LEVEL:     795035  ACCURACY: 0.0193702
L2C TIMELY PREFETCHES:        154 LATE PREFETCHES: 0 DROPPED PREFETCHES: 0
L2C PREFETCHES SAME FILL-ORIGIN LEVEL: 0 DIFFERENT FILL-ORIGIN LEVEL: 0
L2C AVERAGE MISS LATENCY: 190.189 cycles
L2C RQ	ACCESS:     651732	FORWARD:          0	MERGED:          0	TO_CACHE:     651732
L2C WQ	ACCESS:     485742	FORWARD:          0	MERGED:          0	TO_CACHE:     485742
L2C PQ	ACCESS:     799870	FORWARD:          0	MERGED:          0	TO_CACHE:     799870

L2C Instructions Evicting Data 0
L2C Translations Evicting Data 21530
L2C Data Evicting Data 1255397
L2C Instructions Evicting Instructions 0
L2C Translations Evicting Instructions 0
L2C Data Evicting Instructions 0
L2C Instructions Evicting Translations 0
L2C Translations Evicting Translations 170
L2C Data Evicting Translations 21514
L2C Dense regions hint from L2: 0
PSCL5 TOTAL     ACCESS:     169653  HIT:     169653  MISS:          0  HIT %:        100  MISS %:          0   MPKI: 0
PSCL5 LOAD TRANSLATION ACCESS:     169650  HIT:     169650  MISS:          0  HIT %:        100  MISS %:          0   MPKI: 0
PSCL5 TRANSLATION FROM L1D PREFETCHER ACCESS:          3  HIT:          3  MISS:          0  HIT %:        100  MISS %:          0   MPKI: 0
PSCL5 PREFETCH  REQUESTED:          0  ISSUED:          0  USEFUL:          0  USELESS:          0
PSCL5 USEFUL LOAD PREFETCHES:          0 PREFETCH ISSUED TO LOWER LEVEL:          0  ACCURACY: -nan
PSCL5 TIMELY PREFETCHES:          0 LATE PREFETCHES: 0 DROPPED PREFETCHES: 0
PSCL5 PREFETCHES SAME FILL-ORIGIN LEVEL: 0 DIFFERENT FILL-ORIGIN LEVEL: 0

PSCL4 TOTAL     ACCESS:     169653  HIT:     169653  MISS:          0  HIT %:        100  MISS %:          0   MPKI: 0
PSCL4 LOAD TRANSLATION ACCESS:     169650  HIT:     169650  MISS:          0  HIT %:        100  MISS %:          0   MPKI: 0
PSCL4 TRANSLATION FROM L1D PREFETCHER ACCESS:          3  HIT:          3  MISS:          0  HIT %:        100  MISS %:          0   MPKI: 0
PSCL4 PREFETCH  REQUESTED:          0  ISSUED:          0  USEFUL:          0  USELESS:          0
PSCL4 USEFUL LOAD PREFETCHES:          0 PREFETCH ISSUED TO LOWER LEVEL:          0  ACCURACY: -nan
PSCL4 TIMELY PREFETCHES:          0 LATE PREFETCHES: 0 DROPPED PREFETCHES: 0
PSCL4 PREFETCHES SAME FILL-ORIGIN LEVEL: 0 DIFFERENT FILL-ORIGIN LEVEL: 0

PSCL3 TOTAL     ACCESS:     169653  HIT:     169653  MISS:          0  HIT %:        100  MISS %:          0   MPKI: 0
PSCL3 LOAD TRANSLATION ACCESS:     169650  HIT:     169650  MISS:          0  HIT %:        100  MISS %:          0   MPKI: 0
PSCL3 TRANSLATION FROM L1D PREFETCHER ACCESS:          3  HIT:          3  MISS:          0  HIT %:        100  MISS %:          0   MPKI: 0
PSCL3 PREFETCH  REQUESTED:          0  ISSUED:          0  USEFUL:          0  USELESS:          0
PSCL3 USEFUL LOAD PREFETCHES:          0 PREFETCH ISSUED TO LOWER LEVEL:          0  ACCURACY: -nan
PSCL3 TIMELY PREFETCHES:          0 LATE PREFETCHES: 0 DROPPED PREFETCHES: 0
PSCL3 PREFETCHES SAME FILL-ORIGIN LEVEL: 0 DIFFERENT FILL-ORIGIN LEVEL: 0

PSCL2 TOTAL     ACCESS:     169653  HIT:     169353  MISS:        300  HIT %:    99.8232  MISS %:   0.176832   MPKI: 0.006
PSCL2 LOAD TRANSLATION ACCESS:     169650  HIT:     169350  MISS:        300  HIT %:    99.8232  MISS %:   0.176835   MPKI: 0.006
PSCL2 TRANSLATION FROM L1D PREFETCHER ACCESS:          3  HIT:          3  MISS:          0  HIT %:        100  MISS %:          0   MPKI: 0
PSCL2 PREFETCH  REQUESTED:          0  ISSUED:          0  USEFUL:          0  USELESS:          0
PSCL2 USEFUL LOAD PREFETCHES:          0 PREFETCH ISSUED TO LOWER LEVEL:          0  ACCURACY: -nan
PSCL2 TIMELY PREFETCHES:          0 LATE PREFETCHES: 0 DROPPED PREFETCHES: 0
PSCL2 PREFETCHES SAME FILL-ORIGIN LEVEL: 0 DIFFERENT FILL-ORIGIN LEVEL: 0

LLC TOTAL     ACCESS:    1784310  HIT:     624898  MISS:    1159412  HIT %:    35.0218  MISS %:    64.9782   MPKI: 23.1882
LLC LOAD      ACCESS:     481876  HIT:      67777  MISS:     414099  HIT %:    14.0652  MISS %:    85.9348   MPKI: 8.28198
LLC PREFETCH  ACCESS:     795035  HIT:      68175  MISS:     726860  HIT %:    8.57509  MISS %:    91.4249   MPKI: 14.5372
AGUS PREFETCH L1 MISS: 0
LLC WRITEBACK ACCESS:     485699  HIT:     485699  MISS:          0  HIT %:        100  MISS %:          0   MPKI: 0
LLC LOAD TRANSLATION ACCESS:      21697  HIT:       3244  MISS:      18453  HIT %:    14.9514  MISS %:    85.0486   MPKI: 0.36906
LLC TRANSLATION FROM L1D PREFETCHER ACCESS:          3  HIT:          3  MISS:          0  HIT %:        100  MISS %:          0   MPKI: 0
LLC PREFETCH  REQUESTED:          0  ISSUED:          0  USEFUL:       2419  USELESS:     724223
LLC USEFUL LOAD PREFETCHES:       2419 PREFETCH ISSUED TO LOWER LEVEL:     726860  ACCURACY: 0.332801
LLC TIMELY PREFETCHES:       2419 LATE PREFETCHES: 0 DROPPED PREFETCHES: 0
LLC PREFETCHES SAME FILL-ORIGIN LEVEL: 0 DIFFERENT FILL-ORIGIN LEVEL: 0
LLC AVERAGE MISS LATENCY: 171.961 cycles
LLC RQ	ACCESS:     503576	FORWARD:          0	MERGED:          0	TO_CACHE:     503576
LLC WQ	ACCESS:     485699	FORWARD:          0	MERGED:          0	TO_CACHE:     485699
LLC PQ	ACCESS:     795035	FORWARD:          0	MERGED:          0	TO_CACHE:     795035

LLC Dense regions hint to LLC: 0

RAW hits: 84784
Loads Generated: 32010371
Loads sent to L1D: 31925565
Stores Generated: 3205648
Stores sent to L1D: 3205648
Major fault: 0 Minor fault: 257109
Allocated PAGES: 257109

stream: 
stream:times selected: 2216969
stream:pref_filled: 1166981
stream:pref_useful: 606896
stream:pref_late: 9845
stream:misses: 232595
stream:misses_by_poll: 0

CS: 
CS:times selected: 365835
CS:pref_filled: 374641
CS:pref_useful: 317218
CS:pref_late: 1
CS:misses: 6236
CS:misses_by_poll: 169

CPLX: 
CPLX:times selected: 1428082
CPLX:pref_filled: 48381
CPLX:pref_useful: 21258
CPLX:pref_late: 140
CPLX:misses: 196652
CPLX:misses_by_poll: 45

NL_L1: 
NL:times selected: 1267
NL:pref_filled: 943
NL:pref_useful: 511
NL:pref_late: 5
NL:misses: 397
NL:misses_by_poll: 0

total selections: 4012153
total_filled: 789743
total_useful: 469847
total_late: 10220
total_polluted: 214
total_misses_after_warmup: 613659
conflicts: 6406593

test: 927524

DRAM Statistics
 CHANNEL 0
 RQ ROW_BUFFER_HIT:     315475  ROW_BUFFER_MISS:     843937
 DBUS_CONGESTED:       1154
 WQ ROW_BUFFER_HIT:     120115  ROW_BUFFER_MISS:     365271  FULL:          0

 AVG_CONGESTED_CYCLE: 4
 All warmup complete: 2
Channel 0 Bank busy for read cycles: 0
Channel 0 Bank busy for write cycles: 0
Channel 0
Rank 0
0banks busy for read cycles: 1892683
0banks busy for write cycles: 21223
1banks busy for read cycles: 25663554
1banks busy for write cycles: 2915193
2banks busy for read cycles: 16647935
2banks busy for write cycles: 3837503
3banks busy for read cycles: 10932344
3banks busy for write cycles: 4519277
4banks busy for read cycles: 6018577
4banks busy for write cycles: 4802820
5banks busy for read cycles: 2979393
5banks busy for write cycles: 4501979
6banks busy for read cycles: 1327561
6banks busy for write cycles: 3655112
7banks busy for read cycles: 438646
7banks busy for write cycles: 2360770
8banks busy for read cycles: 76319
8banks busy for write cycles: 1105346

CPU 0 Branch Prediction Accuracy: 93.3275% MPKI: 0.80204 Average ROB Occupancy at Mispredict: 245.061
Branch types
NOT_BRANCH: 49398998 98.798%
BRANCH_DIRECT_JUMP: 40061 0.080122%
BRANCH_INDIRECT: 0 0%
BRANCH_CONDITIONAL: 560941 1.12188%
BRANCH_DIRECT_CALL: 0 0%
BRANCH_INDIRECT_CALL: 0 0%
BRANCH_RETURN: 0 0%
BRANCH_OTHER: 0 0%

DRAM PAGES: 1048576
Allocated PAGES: 257109
