
*** ChampSim Multicore Out-of-Order Simulator ***

Warmup Instructions: 50000000
Simulation Instructions: 50000000
Number of CPUs: 1
LLC sets: 2048
LLC ways: 16
Off-chip DRAM Size: 4096 MB Channels: 1 Width: 64-bit Data Rate: 6400 MT/s
CPU 0 runs traces/SPEC-CPU2017/649.fotonik3d_s-10881B.champsimtrace.xz
.xz
CPU 0 Bimodal branch predictor
BTB has LRU replacement policy
ITLB has LRU replacement policy
DTLB has LRU replacement policy
STLB has LRU replacement policy
L1I has LRU replacement policy
L1D has LRU replacement policy
L2C has LRU replacement policy
LLC has LRU replacement policy
Heartbeat CPU 0 instructions: 10000002 cycles: 5237561 heartbeat IPC: 1.90929 cumulative IPC: 1.90929 (Simulation time: 0 hr 0 min 58 sec) 
Heartbeat CPU 0 instructions: 20000000 cycles: 10479523 heartbeat IPC: 1.90768 cumulative IPC: 1.90848 (Simulation time: 0 hr 1 min 55 sec) 
Heartbeat CPU 0 instructions: 30000003 cycles: 15734240 heartbeat IPC: 1.90305 cumulative IPC: 1.90667 (Simulation time: 0 hr 2 min 53 sec) 
Heartbeat CPU 0 instructions: 40000000 cycles: 20972994 heartbeat IPC: 1.90885 cumulative IPC: 1.90721 (Simulation time: 0 hr 3 min 51 sec) 
Heartbeat CPU 0 instructions: 50000000 cycles: 26196321 heartbeat IPC: 1.91449 cumulative IPC: 1.90866 (Simulation time: 0 hr 4 min 49 sec) 

Warmup complete CPU 0 instructions: 50000004 cycles: 26196322 (Simulation time: 0 hr 4 min 49 sec) 

Heartbeat CPU 0 instructions: 60000000 cycles: 45696389 heartbeat IPC: 0.512819 cumulative IPC: 0.512819 (Simulation time: 0 hr 5 min 56 sec) 
Heartbeat CPU 0 instructions: 70000000 cycles: 65212917 heartbeat IPC: 0.512386 cumulative IPC: 0.512602 (Simulation time: 0 hr 7 min 3 sec) 
Heartbeat CPU 0 instructions: 80000000 cycles: 84660997 heartbeat IPC: 0.51419 cumulative IPC: 0.51313 (Simulation time: 0 hr 8 min 10 sec) 
Heartbeat CPU 0 instructions: 90000003 cycles: 104180814 heartbeat IPC: 0.5123 cumulative IPC: 0.512922 (Simulation time: 0 hr 9 min 18 sec) 
Heartbeat CPU 0 instructions: 100000000 cycles: 123745446 heartbeat IPC: 0.511126 cumulative IPC: 0.512562 (Simulation time: 0 hr 10 min 25 sec) 
Finished CPU 0 instructions: 50000001 cycles: 97549164 cumulative IPC: 0.512562 (Simulation time: 0 hr 10 min 25 sec) 

ChampSim completed all CPUs

Region of Interest Statistics

CPU 0 cumulative IPC: 0.512562 instructions: 50000001 cycles: 97549164
ITLB TOTAL     ACCESS:    7741426  HIT:    7741426  MISS:          0  HIT %:        100  MISS %:          0   MPKI: 0
ITLB LOAD TRANSLATION ACCESS:    7741426  HIT:    7741426  MISS:          0  HIT %:        100  MISS %:          0   MPKI: 0
ITLB PREFETCH  REQUESTED:          0  ISSUED:          0  USEFUL:          0  USELESS:          0
ITLB USEFUL LOAD PREFETCHES:          0 PREFETCH ISSUED TO LOWER LEVEL:          0  ACCURACY: -nan
ITLB TIMELY PREFETCHES:          0 LATE PREFETCHES: 0 DROPPED PREFETCHES: 0
ITLB PREFETCHES SAME FILL-ORIGIN LEVEL: 0 DIFFERENT FILL-ORIGIN LEVEL: 0
ITLB AVERAGE MISS LATENCY: -nan cycles
ITLB RQ	ACCESS:    8631030	FORWARD:          0	MERGED:     889605	TO_CACHE:    7741425

DTLB TOTAL     ACCESS:   21425615  HIT:   21159998  MISS:     265617  HIT %:    98.7603  MISS %:    1.23972   MPKI: 5.31234
DTLB LOAD TRANSLATION ACCESS:   21425615  HIT:   21159998  MISS:     265617  HIT %:    98.7603  MISS %:    1.23972   MPKI: 5.31234
DTLB PREFETCH  REQUESTED:          0  ISSUED:          0  USEFUL:          0  USELESS:          0
DTLB USEFUL LOAD PREFETCHES:          0 PREFETCH ISSUED TO LOWER LEVEL:          0  ACCURACY: -nan
DTLB TIMELY PREFETCHES:          0 LATE PREFETCHES: 0 DROPPED PREFETCHES: 0
DTLB PREFETCHES SAME FILL-ORIGIN LEVEL: 0 DIFFERENT FILL-ORIGIN LEVEL: 0
DTLB AVERAGE MISS LATENCY: 136.423 cycles
DTLB RQ	ACCESS:   23921669	FORWARD:          0	MERGED:    2481871	TO_CACHE:   21439798

STLB TOTAL     ACCESS:     786984  HIT:     617222  MISS:     169762  HIT %:    78.4288  MISS %:    21.5712   MPKI: 3.39524
STLB LOAD TRANSLATION ACCESS:     265617  HIT:     130052  MISS:     135565  HIT %:    48.9622  MISS %:    51.0378   MPKI: 2.7113
STLB TRANSLATION FROM L1D PREFETCHER ACCESS:     521367  HIT:     487170  MISS:      34197  HIT %:    93.4409  MISS %:     6.5591   MPKI: 0.68394
STLB PREFETCH  REQUESTED:          0  ISSUED:          0  USEFUL:      34193  USELESS:          4
STLB USEFUL LOAD PREFETCHES:      34193 PREFETCH ISSUED TO LOWER LEVEL:          0  ACCURACY: inf
STLB TIMELY PREFETCHES:      34193 LATE PREFETCHES: 0 DROPPED PREFETCHES: 0
STLB PREFETCHES SAME FILL-ORIGIN LEVEL: 0 DIFFERENT FILL-ORIGIN LEVEL: 0
STLB AVERAGE MISS LATENCY: 204.914 cycles
STLB RQ	ACCESS:    1220111	FORWARD:          0	MERGED:     432967	TO_CACHE:     787144

STLB Hit, L1D data hit: 0
STLB Hit, L2C data hit: 0
STLB Hit, LLC data hit: 0
STLB Hit, LLC data miss: 0
STLB STLB hints to L2: 0
L1D TOTAL     ACCESS:   24701548  HIT:   23379597  MISS:    1321951  HIT %:    94.6483  MISS %:    5.35169   MPKI: 26.439
L1D LOAD      ACCESS:   20561950  HIT:   20031405  MISS:     530545  HIT %:    97.4198  MISS %:    2.58023   MPKI: 10.6109
L1D RFO       ACCESS:    3205648  HIT:    3205648  MISS:          0  HIT %:        100  MISS %:          0   MPKI: 0
L1D PREFETCH  ACCESS:     933950  HIT:     142544  MISS:     791406  HIT %:    15.2625  MISS %:    84.7375   MPKI: 15.8281
AGUS PREFETCH L1 MISS: 0
L1D PREFETCH  REQUESTED:    1962706  ISSUED:    1911924  USEFUL:     431455  USELESS:     359962
L1D USEFUL LOAD PREFETCHES:     431455 PREFETCH ISSUED TO LOWER LEVEL:     797420  ACCURACY: 54.1064
L1D TIMELY PREFETCHES:     431455 LATE PREFETCHES: 6014 DROPPED PREFETCHES: 0
L1D PREFETCHES SAME FILL-ORIGIN LEVEL: 797420 DIFFERENT FILL-ORIGIN LEVEL: 0
L1D AVERAGE MISS LATENCY: 215.255 cycles
L1D RQ	ACCESS:   31923015	FORWARD:          0	MERGED:   11198670	TO_CACHE:   20716021
L1D WQ	ACCESS:    3205648	FORWARD:       8324	MERGED:          0	TO_CACHE:    3205648
L1D PQ	ACCESS:     957430	FORWARD:          0	MERGED:       2936	TO_CACHE:     954494

L1D UNIQUE REGIONS ACCESSED: 0
L1D REGIONS CONFLICTS: 0
L1D Cross Page Prefetch Requests: 158112
L1D Same Page Prefetch Requests: 1723577
L1D ROI Sum of L1D PQ occupancy: 21691981
L1D PREFETCHES PUSHED FROM L2C: 0
L1I TOTAL     ACCESS:    8631031  HIT:    8631031  MISS:          0  HIT %:        100  MISS %:          0   MPKI: 0
L1I LOAD      ACCESS:    8631031  HIT:    8631031  MISS:          0  HIT %:        100  MISS %:          0   MPKI: 0
L1I PREFETCH  REQUESTED:          0  ISSUED:          0  USEFUL:          0  USELESS:          0
L1I USEFUL LOAD PREFETCHES:          0 PREFETCH ISSUED TO LOWER LEVEL:          0  ACCURACY: -nan
L1I TIMELY PREFETCHES:          0 LATE PREFETCHES: 0 DROPPED PREFETCHES: 0
L1I PREFETCHES SAME FILL-ORIGIN LEVEL: 0 DIFFERENT FILL-ORIGIN LEVEL: 0
L1I AVERAGE MISS LATENCY: -nan cycles
L1I RQ	ACCESS:   15168669	FORWARD:          0	MERGED:    6537639	TO_CACHE:    8631030

BTB TOTAL     ACCESS:     560941  HIT:     560936  MISS:          5  HIT %:    99.9991  MISS %: 0.000891359   MPKI: 0.0001
BTB BRANCH_DIRECT_JUMP	ACCESS:      40061  HIT:      40060  MISS:          1
BTB BRANCH_INDIRECT	ACCESS:          0  HIT:          0  MISS:          0
BTB BRANCH_CONDITIONAL	ACCESS:     520880  HIT:     520876  MISS:          4
BTB BRANCH_DIRECT_CALL	ACCESS:          0  HIT:          0  MISS:          0
BTB BRANCH_INDIRECT_CALL	ACCESS:          0  HIT:          0  MISS:          0
BTB BRANCH_RETURN	ACCESS:          0  HIT:          0  MISS:          0
BTB BRANCH_OTHER ACCESS:          0  HIT:          0  MISS:          0

L2C TOTAL     ACCESS:    1977504  HIT:     645975  MISS:    1331529  HIT %:    32.6662  MISS %:    67.3338   MPKI: 26.6306
L2C LOAD      ACCESS:     524531  HIT:       5252  MISS:     519279  HIT %:    1.00128  MISS %:    98.9987   MPKI: 10.3856
L2C DATA LOAD MPKI: 10.3856
L2C INSTRUCTION LOAD MPKI: 0
L2C PREFETCH  ACCESS:     797420  HIT:       6854  MISS:     790566  HIT %:   0.859522  MISS %:    99.1405   MPKI: 15.8113
AGUS PREFETCH L1 MISS: 0
L2C DATA PREFETCH MPKI: 15.8113
L2C INSTRUCTION PREFETCH MPKI: 0
L2C WRITEBACK ACCESS:     485741  HIT:     485741  MISS:          0  HIT %:        100  MISS %:          0   MPKI: 0
L2C LOAD TRANSLATION ACCESS:     135609  HIT:     118266  MISS:      17343  HIT %:     87.211  MISS %:     12.789   MPKI: 0.34686
L2C TRANSLATION FROM L1D PREFETCHER ACCESS:      34203  HIT:      29862  MISS:       4341  HIT %:    87.3081  MISS %:    12.6919   MPKI: 0.08682
L2C PREFETCH  REQUESTED:          0  ISSUED:          0  USEFUL:       9571  USELESS:     785373
L2C USEFUL LOAD PREFETCHES:       9571 PREFETCH ISSUED TO LOWER LEVEL:     790566  ACCURACY: 1.21065
L2C TIMELY PREFETCHES:       9571 LATE PREFETCHES: 0 DROPPED PREFETCHES: 0
L2C PREFETCHES SAME FILL-ORIGIN LEVEL: 0 DIFFERENT FILL-ORIGIN LEVEL: 0
L2C AVERAGE MISS LATENCY: 188.067 cycles
L2C RQ	ACCESS:     694343	FORWARD:          0	MERGED:          0	TO_CACHE:     694343
L2C WQ	ACCESS:     485741	FORWARD:          0	MERGED:          0	TO_CACHE:     485741
L2C PQ	ACCESS:     797420	FORWARD:          0	MERGED:          0	TO_CACHE:     797420

L2C Instructions Evicting Data 0
L2C Translations Evicting Data 21504
L2C Data Evicting Data 1288343
L2C Instructions Evicting Instructions 0
L2C Translations Evicting Instructions 0
L2C Data Evicting Instructions 0
L2C Instructions Evicting Translations 0
L2C Translations Evicting Translations 180
L2C Data Evicting Translations 21502
L2C Dense regions hint from L2: 0
PSCL5 TOTAL     ACCESS:     169762  HIT:     169762  MISS:          0  HIT %:        100  MISS %:          0   MPKI: 0
PSCL5 LOAD TRANSLATION ACCESS:     135565  HIT:     135565  MISS:          0  HIT %:        100  MISS %:          0   MPKI: 0
PSCL5 TRANSLATION FROM L1D PREFETCHER ACCESS:      34197  HIT:      34197  MISS:          0  HIT %:        100  MISS %:          0   MPKI: 0
PSCL5 PREFETCH  REQUESTED:          0  ISSUED:          0  USEFUL:          0  USELESS:          0
PSCL5 USEFUL LOAD PREFETCHES:          0 PREFETCH ISSUED TO LOWER LEVEL:          0  ACCURACY: -nan
PSCL5 TIMELY PREFETCHES:          0 LATE PREFETCHES: 0 DROPPED PREFETCHES: 0
PSCL5 PREFETCHES SAME FILL-ORIGIN LEVEL: 0 DIFFERENT FILL-ORIGIN LEVEL: 0

PSCL4 TOTAL     ACCESS:     169762  HIT:     169762  MISS:          0  HIT %:        100  MISS %:          0   MPKI: 0
PSCL4 LOAD TRANSLATION ACCESS:     135565  HIT:     135565  MISS:          0  HIT %:        100  MISS %:          0   MPKI: 0
PSCL4 TRANSLATION FROM L1D PREFETCHER ACCESS:      34197  HIT:      34197  MISS:          0  HIT %:        100  MISS %:          0   MPKI: 0
PSCL4 PREFETCH  REQUESTED:          0  ISSUED:          0  USEFUL:          0  USELESS:          0
PSCL4 USEFUL LOAD PREFETCHES:          0 PREFETCH ISSUED TO LOWER LEVEL:          0  ACCURACY: -nan
PSCL4 TIMELY PREFETCHES:          0 LATE PREFETCHES: 0 DROPPED PREFETCHES: 0
PSCL4 PREFETCHES SAME FILL-ORIGIN LEVEL: 0 DIFFERENT FILL-ORIGIN LEVEL: 0

PSCL3 TOTAL     ACCESS:     169762  HIT:     169762  MISS:          0  HIT %:        100  MISS %:          0   MPKI: 0
PSCL3 LOAD TRANSLATION ACCESS:     135565  HIT:     135565  MISS:          0  HIT %:        100  MISS %:          0   MPKI: 0
PSCL3 TRANSLATION FROM L1D PREFETCHER ACCESS:      34197  HIT:      34197  MISS:          0  HIT %:        100  MISS %:          0   MPKI: 0
PSCL3 PREFETCH  REQUESTED:          0  ISSUED:          0  USEFUL:          0  USELESS:          0
PSCL3 USEFUL LOAD PREFETCHES:          0 PREFETCH ISSUED TO LOWER LEVEL:          0  ACCURACY: -nan
PSCL3 TIMELY PREFETCHES:          0 LATE PREFETCHES: 0 DROPPED PREFETCHES: 0
PSCL3 PREFETCHES SAME FILL-ORIGIN LEVEL: 0 DIFFERENT FILL-ORIGIN LEVEL: 0

PSCL2 TOTAL     ACCESS:     169762  HIT:     169464  MISS:        298  HIT %:    99.8245  MISS %:    0.17554   MPKI: 0.00596
PSCL2 LOAD TRANSLATION ACCESS:     135571  HIT:     135273  MISS:        298  HIT %:    99.7802  MISS %:   0.219811   MPKI: 0.00596
PSCL2 TRANSLATION FROM L1D PREFETCHER ACCESS:      34191  HIT:      34191  MISS:          0  HIT %:        100  MISS %:          0   MPKI: 0
PSCL2 PREFETCH  REQUESTED:          0  ISSUED:          0  USEFUL:          0  USELESS:          0
PSCL2 USEFUL LOAD PREFETCHES:          0 PREFETCH ISSUED TO LOWER LEVEL:          0  ACCURACY: -nan
PSCL2 TIMELY PREFETCHES:          0 LATE PREFETCHES: 0 DROPPED PREFETCHES: 0
PSCL2 PREFETCHES SAME FILL-ORIGIN LEVEL: 0 DIFFERENT FILL-ORIGIN LEVEL: 0

LLC TOTAL     ACCESS:    1817209  HIT:     601059  MISS:    1216150  HIT %:    33.0759  MISS %:    66.9241   MPKI: 24.323
LLC LOAD      ACCESS:     519279  HIT:      40223  MISS:     479056  HIT %:    7.74593  MISS %:    92.2541   MPKI: 9.58112
LLC PREFETCH  ACCESS:     790566  HIT:      72112  MISS:     718454  HIT %:    9.12157  MISS %:    90.8784   MPKI: 14.3691
AGUS PREFETCH L1 MISS: 0
LLC WRITEBACK ACCESS:     485680  HIT:     485680  MISS:          0  HIT %:        100  MISS %:          0   MPKI: 0
LLC LOAD TRANSLATION ACCESS:      17343  HIT:        711  MISS:      16632  HIT %:    4.09964  MISS %:    95.9004   MPKI: 0.33264
LLC TRANSLATION FROM L1D PREFETCHER ACCESS:       4341  HIT:       2333  MISS:       2008  HIT %:    53.7434  MISS %:    46.2566   MPKI: 0.04016
LLC PREFETCH  REQUESTED:          0  ISSUED:          0  USEFUL:      28915  USELESS:     690927
LLC USEFUL LOAD PREFETCHES:      28915 PREFETCH ISSUED TO LOWER LEVEL:     718454  ACCURACY: 4.02461
LLC TIMELY PREFETCHES:      28915 LATE PREFETCHES: 0 DROPPED PREFETCHES: 0
LLC PREFETCHES SAME FILL-ORIGIN LEVEL: 0 DIFFERENT FILL-ORIGIN LEVEL: 0
LLC AVERAGE MISS LATENCY: 167.455 cycles
LLC RQ	ACCESS:     540963	FORWARD:          0	MERGED:          0	TO_CACHE:     540963
LLC WQ	ACCESS:     485680	FORWARD:          0	MERGED:          0	TO_CACHE:     485680
LLC PQ	ACCESS:     790566	FORWARD:          0	MERGED:          0	TO_CACHE:     790566

LLC Dense regions hint to LLC: 0

RAW hits: 87374
Loads Generated: 32010392
Loads sent to L1D: 31923015
Stores Generated: 3205648
Stores sent to L1D: 3205648
Major fault: 0 Minor fault: 257109
Allocated PAGES: 257109

stream: 
stream:times selected: 1062765
stream:pref_filled: 661626
stream:pref_useful: 334336
stream:pref_late: 5123
stream:misses: 171188
stream:misses_by_poll: 0

CS: 
CS:times selected: 130511
CS:pref_filled: 306606
CS:pref_useful: 169409
CS:pref_late: 343
CS:misses: 146392
CS:misses_by_poll: 568

CPLX: 
CPLX:times selected: 888593
CPLX:pref_filled: 396236
CPLX:pref_useful: 175339
CPLX:pref_late: 401
CPLX:misses: 804697
CPLX:misses_by_poll: 709

ISB: 
ISB:times selected:58460
ISB:pref_filled: 198107
ISB:pref_useful: 182578
ISB:pref_late: 127
ISB:misses: 77591
ISB:misses_by_poll: 203

NL_L1: 
NL:times selected: 8601
NL:pref_filled: 8385
NL:pref_useful: 5634
NL:pref_late: 23
NL:misses: 9673
NL:misses_by_poll: 0

total selections: 2148930
total_filled: 791406
total_useful: 431455
total_late: 6189
total_polluted: 1480
total_misses_after_warmup: 684610
conflicts: 304

test: 355539
ISB Prefetcher final stats
Training Unit Size: 26
Addr table size: 987101 987101


Triggers: 1062771
No Prediction: 1004311 94.4993
Stream end: 20189
No translation: 20277391 1907.97
Predictions: 209282 19.6921


Stream divergence: 55392 5.21204
Stream divergence -- new stream: 0

DRAM Statistics
 CHANNEL 0
 RQ ROW_BUFFER_HIT:     414342  ROW_BUFFER_MISS:     801808
 DBUS_CONGESTED:        516
 WQ ROW_BUFFER_HIT:      76106  ROW_BUFFER_MISS:     409714  FULL:          0

 AVG_CONGESTED_CYCLE: 4
 All warmup complete: 2
Channel 0 Bank busy for read cycles: 0
Channel 0 Bank busy for write cycles: 0
Channel 0
Rank 0
0banks busy for read cycles: 13150604
0banks busy for write cycles: 81479
1banks busy for read cycles: 16762716
1banks busy for write cycles: 9009714
2banks busy for read cycles: 12946929
2banks busy for write cycles: 7182960
3banks busy for read cycles: 8069841
3banks busy for write cycles: 5423599
4banks busy for read cycles: 6472664
4banks busy for write cycles: 4032220
5banks busy for read cycles: 4287522
5banks busy for write cycles: 2926119
6banks busy for read cycles: 2549468
6banks busy for write cycles: 1891124
7banks busy for read cycles: 1225959
7banks busy for write cycles: 917059
8banks busy for read cycles: 365365
8banks busy for write cycles: 253823

CPU 0 Branch Prediction Accuracy: 93.3275% MPKI: 0.80204 Average ROB Occupancy at Mispredict: 246.664
Branch types
NOT_BRANCH: 49399000 98.798%
BRANCH_DIRECT_JUMP: 40061 0.080122%
BRANCH_INDIRECT: 0 0%
BRANCH_CONDITIONAL: 560941 1.12188%
BRANCH_DIRECT_CALL: 0 0%
BRANCH_INDIRECT_CALL: 0 0%
BRANCH_RETURN: 0 0%
BRANCH_OTHER: 0 0%

DRAM PAGES: 1048576
Allocated PAGES: 257109
