
*** ChampSim Multicore Out-of-Order Simulator ***

Warmup Instructions: 50000000
Simulation Instructions: 50000000
Number of CPUs: 1
LLC sets: 2048
LLC ways: 16
Off-chip DRAM Size: 4096 MB Channels: 1 Width: 64-bit Data Rate: 6400 MT/s
CPU 0 runs ./traces/SPEC-CPU2017/649.fotonik3d_s-10881B.champsimtrace.xz
.xz
CPU 0 Bimodal branch predictor
BTB has LRU replacement policy
ITLB has LRU replacement policy
DTLB has LRU replacement policy
STLB has LRU replacement policy
L1I has LRU replacement policy
L1D has LRU replacement policy
L2C has LRU replacement policy
LLC has LRU replacement policy
Heartbeat CPU 0 instructions: 10000002 cycles: 5240206 heartbeat IPC: 1.90832 cumulative IPC: 1.90832 (Simulation time: 0 hr 0 min 45 sec) 
Heartbeat CPU 0 instructions: 20000000 cycles: 10480333 heartbeat IPC: 1.90835 cumulative IPC: 1.90834 (Simulation time: 0 hr 1 min 31 sec) 
Heartbeat CPU 0 instructions: 30000003 cycles: 15735716 heartbeat IPC: 1.90281 cumulative IPC: 1.90649 (Simulation time: 0 hr 2 min 17 sec) 
Heartbeat CPU 0 instructions: 40000000 cycles: 20975199 heartbeat IPC: 1.90858 cumulative IPC: 1.90701 (Simulation time: 0 hr 3 min 2 sec) 
Heartbeat CPU 0 instructions: 50000000 cycles: 26201734 heartbeat IPC: 1.91331 cumulative IPC: 1.90827 (Simulation time: 0 hr 3 min 48 sec) 

Warmup complete CPU 0 instructions: 50000004 cycles: 26201735 (Simulation time: 0 hr 3 min 48 sec) 

Heartbeat CPU 0 instructions: 60000000 cycles: 48741804 heartbeat IPC: 0.443654 cumulative IPC: 0.443654 (Simulation time: 0 hr 4 min 56 sec) 
Heartbeat CPU 0 instructions: 70000000 cycles: 71489137 heartbeat IPC: 0.439612 cumulative IPC: 0.441624 (Simulation time: 0 hr 6 min 4 sec) 
Heartbeat CPU 0 instructions: 80000000 cycles: 93942984 heartbeat IPC: 0.445358 cumulative IPC: 0.442862 (Simulation time: 0 hr 7 min 11 sec) 
Heartbeat CPU 0 instructions: 90000003 cycles: 116452846 heartbeat IPC: 0.44425 cumulative IPC: 0.443208 (Simulation time: 0 hr 8 min 19 sec) 
Heartbeat CPU 0 instructions: 100000000 cycles: 139164508 heartbeat IPC: 0.440302 cumulative IPC: 0.442624 (Simulation time: 0 hr 9 min 26 sec) 
Finished CPU 0 instructions: 50000001 cycles: 112962813 cumulative IPC: 0.442624 (Simulation time: 0 hr 9 min 26 sec) 

ChampSim completed all CPUs

Region of Interest Statistics

CPU 0 cumulative IPC: 0.442624 instructions: 50000001 cycles: 112962813
ITLB TOTAL     ACCESS:    7986394  HIT:    7986394  MISS:          0  HIT %:        100  MISS %:          0   MPKI: 0
ITLB LOAD TRANSLATION ACCESS:    7986394  HIT:    7986394  MISS:          0  HIT %:        100  MISS %:          0   MPKI: 0
ITLB PREFETCH  REQUESTED:          0  ISSUED:          0  USEFUL:          0  USELESS:          0
ITLB USEFUL LOAD PREFETCHES:          0 PREFETCH ISSUED TO LOWER LEVEL:          0  ACCURACY: -nan
ITLB TIMELY PREFETCHES:          0 LATE PREFETCHES: 0 DROPPED PREFETCHES: 0
ITLB PREFETCHES SAME FILL-ORIGIN LEVEL: 0 DIFFERENT FILL-ORIGIN LEVEL: 0
ITLB AVERAGE MISS LATENCY: -nan cycles
ITLB RQ	ACCESS:    8874645	FORWARD:          0	MERGED:     888252	TO_CACHE:    7986393

DTLB TOTAL     ACCESS:   21702286  HIT:   21436773  MISS:     265513  HIT %:    98.7766  MISS %:    1.22343   MPKI: 5.31026
DTLB LOAD TRANSLATION ACCESS:   21702286  HIT:   21436773  MISS:     265513  HIT %:    98.7766  MISS %:    1.22343   MPKI: 5.31026
DTLB PREFETCH  REQUESTED:          0  ISSUED:          0  USEFUL:          0  USELESS:          0
DTLB USEFUL LOAD PREFETCHES:          0 PREFETCH ISSUED TO LOWER LEVEL:          0  ACCURACY: -nan
DTLB TIMELY PREFETCHES:          0 LATE PREFETCHES: 0 DROPPED PREFETCHES: 0
DTLB PREFETCHES SAME FILL-ORIGIN LEVEL: 0 DIFFERENT FILL-ORIGIN LEVEL: 0
DTLB AVERAGE MISS LATENCY: 158.428 cycles
DTLB RQ	ACCESS:   24117197	FORWARD:          0	MERGED:    2400865	TO_CACHE:   21716332

STLB TOTAL     ACCESS:     265513  HIT:      95729  MISS:     169784  HIT %:    36.0544  MISS %:    63.9456   MPKI: 3.39568
STLB LOAD TRANSLATION ACCESS:     265513  HIT:      95729  MISS:     169784  HIT %:    36.0544  MISS %:    63.9456   MPKI: 3.39568
STLB PREFETCH  REQUESTED:          0  ISSUED:          0  USEFUL:          0  USELESS:          0
STLB USEFUL LOAD PREFETCHES:          0 PREFETCH ISSUED TO LOWER LEVEL:          0  ACCURACY: -nan
STLB TIMELY PREFETCHES:          0 LATE PREFETCHES: 0 DROPPED PREFETCHES: 0
STLB PREFETCHES SAME FILL-ORIGIN LEVEL: 0 DIFFERENT FILL-ORIGIN LEVEL: 0
STLB AVERAGE MISS LATENCY: 215.41 cycles
STLB RQ	ACCESS:     265513	FORWARD:          0	MERGED:          0	TO_CACHE:     265513

STLB Hit, L1D data hit: 0
STLB Hit, L2C data hit: 0
STLB Hit, LLC data hit: 0
STLB Hit, LLC data miss: 0
STLB STLB hints to L2: 0
L1D TOTAL     ACCESS:   23836671  HIT:   22874670  MISS:     962001  HIT %:    95.9642  MISS %:     4.0358   MPKI: 19.24
L1D LOAD      ACCESS:   20631023  HIT:   19669022  MISS:     962001  HIT %:    95.3371  MISS %:    4.66289   MPKI: 19.24
L1D RFO       ACCESS:    3205648  HIT:    3205648  MISS:          0  HIT %:        100  MISS %:          0   MPKI: 0
L1D PREFETCH  REQUESTED:          0  ISSUED:          0  USEFUL:          0  USELESS:          0
L1D USEFUL LOAD PREFETCHES:          0 PREFETCH ISSUED TO LOWER LEVEL:          0  ACCURACY: -nan
L1D TIMELY PREFETCHES:          0 LATE PREFETCHES: 0 DROPPED PREFETCHES: 0
L1D PREFETCHES SAME FILL-ORIGIN LEVEL: 0 DIFFERENT FILL-ORIGIN LEVEL: 0
L1D AVERAGE MISS LATENCY: 198.071 cycles
L1D RQ	ACCESS:   31921354	FORWARD:          0	MERGED:   11001885	TO_CACHE:   20911549
L1D WQ	ACCESS:    3205648	FORWARD:       7920	MERGED:          0	TO_CACHE:    3205648

L1D UNIQUE REGIONS ACCESSED: 0
L1D REGIONS CONFLICTS: 0
L1D Cross Page Prefetch Requests: 0
L1D Same Page Prefetch Requests: 0
L1D ROI Sum of L1D PQ occupancy: 0
L1D PREFETCHES PUSHED FROM L2C: 0
L1I TOTAL     ACCESS:    8874646  HIT:    8874646  MISS:          0  HIT %:        100  MISS %:          0   MPKI: 0
L1I LOAD      ACCESS:    8874646  HIT:    8874646  MISS:          0  HIT %:        100  MISS %:          0   MPKI: 0
L1I PREFETCH  REQUESTED:          0  ISSUED:          0  USEFUL:          0  USELESS:          0
L1I USEFUL LOAD PREFETCHES:          0 PREFETCH ISSUED TO LOWER LEVEL:          0  ACCURACY: -nan
L1I TIMELY PREFETCHES:          0 LATE PREFETCHES: 0 DROPPED PREFETCHES: 0
L1I PREFETCHES SAME FILL-ORIGIN LEVEL: 0 DIFFERENT FILL-ORIGIN LEVEL: 0
L1I AVERAGE MISS LATENCY: -nan cycles
L1I RQ	ACCESS:   15634098	FORWARD:          0	MERGED:    6759453	TO_CACHE:    8874645

BTB TOTAL     ACCESS:     560941  HIT:     560936  MISS:          5  HIT %:    99.9991  MISS %: 0.000891359   MPKI: 0.0001
BTB BRANCH_DIRECT_JUMP	ACCESS:      40061  HIT:      40060  MISS:          1
BTB BRANCH_INDIRECT	ACCESS:          0  HIT:          0  MISS:          0
BTB BRANCH_CONDITIONAL	ACCESS:     520880  HIT:     520876  MISS:          4
BTB BRANCH_DIRECT_CALL	ACCESS:          0  HIT:          0  MISS:          0
BTB BRANCH_INDIRECT_CALL	ACCESS:          0  HIT:          0  MISS:          0
BTB BRANCH_RETURN	ACCESS:          0  HIT:          0  MISS:          0
BTB BRANCH_OTHER ACCESS:          0  HIT:          0  MISS:          0

L2C TOTAL     ACCESS:    1617574  HIT:     633946  MISS:     983628  HIT %:    39.1912  MISS %:    60.8088   MPKI: 19.6726
L2C LOAD      ACCESS:     962001  HIT:          3  MISS:     961998  HIT %: 0.00031185  MISS %:    99.9997   MPKI: 19.24
L2C DATA LOAD MPKI: 19.24
L2C INSTRUCTION LOAD MPKI: 0
L2C WRITEBACK ACCESS:     485739  HIT:     485739  MISS:          0  HIT %:        100  MISS %:          0   MPKI: 0
L2C LOAD TRANSLATION ACCESS:     169834  HIT:     148204  MISS:      21630  HIT %:     87.264  MISS %:     12.736   MPKI: 0.4326
L2C PREFETCH  REQUESTED:          0  ISSUED:          0  USEFUL:          0  USELESS:          0
L2C USEFUL LOAD PREFETCHES:          0 PREFETCH ISSUED TO LOWER LEVEL:          0  ACCURACY: -nan
L2C TIMELY PREFETCHES:          0 LATE PREFETCHES: 0 DROPPED PREFETCHES: 0
L2C PREFETCHES SAME FILL-ORIGIN LEVEL: 0 DIFFERENT FILL-ORIGIN LEVEL: 0
L2C AVERAGE MISS LATENCY: 173.37 cycles
L2C RQ	ACCESS:    1131834	FORWARD:          0	MERGED:          0	TO_CACHE:    1131834
L2C WQ	ACCESS:     485739	FORWARD:          0	MERGED:          0	TO_CACHE:     485739

L2C Instructions Evicting Data 0
L2C Translations Evicting Data 21485
L2C Data Evicting Data 940514
L2C Instructions Evicting Instructions 0
L2C Translations Evicting Instructions 0
L2C Data Evicting Instructions 0
L2C Instructions Evicting Translations 0
L2C Translations Evicting Translations 145
L2C Data Evicting Translations 21484
L2C Dense regions hint from L2: 0
PSCL5 TOTAL     ACCESS:     169784  HIT:     169784  MISS:          0  HIT %:        100  MISS %:          0   MPKI: 0
PSCL5 LOAD TRANSLATION ACCESS:     169784  HIT:     169784  MISS:          0  HIT %:        100  MISS %:          0   MPKI: 0
PSCL5 PREFETCH  REQUESTED:          0  ISSUED:          0  USEFUL:          0  USELESS:          0
PSCL5 USEFUL LOAD PREFETCHES:          0 PREFETCH ISSUED TO LOWER LEVEL:          0  ACCURACY: -nan
PSCL5 TIMELY PREFETCHES:          0 LATE PREFETCHES: 0 DROPPED PREFETCHES: 0
PSCL5 PREFETCHES SAME FILL-ORIGIN LEVEL: 0 DIFFERENT FILL-ORIGIN LEVEL: 0

PSCL4 TOTAL     ACCESS:     169784  HIT:     169784  MISS:          0  HIT %:        100  MISS %:          0   MPKI: 0
PSCL4 LOAD TRANSLATION ACCESS:     169784  HIT:     169784  MISS:          0  HIT %:        100  MISS %:          0   MPKI: 0
PSCL4 PREFETCH  REQUESTED:          0  ISSUED:          0  USEFUL:          0  USELESS:          0
PSCL4 USEFUL LOAD PREFETCHES:          0 PREFETCH ISSUED TO LOWER LEVEL:          0  ACCURACY: -nan
PSCL4 TIMELY PREFETCHES:          0 LATE PREFETCHES: 0 DROPPED PREFETCHES: 0
PSCL4 PREFETCHES SAME FILL-ORIGIN LEVEL: 0 DIFFERENT FILL-ORIGIN LEVEL: 0

PSCL3 TOTAL     ACCESS:     169784  HIT:     169784  MISS:          0  HIT %:        100  MISS %:          0   MPKI: 0
PSCL3 LOAD TRANSLATION ACCESS:     169784  HIT:     169784  MISS:          0  HIT %:        100  MISS %:          0   MPKI: 0
PSCL3 PREFETCH  REQUESTED:          0  ISSUED:          0  USEFUL:          0  USELESS:          0
PSCL3 USEFUL LOAD PREFETCHES:          0 PREFETCH ISSUED TO LOWER LEVEL:          0  ACCURACY: -nan
PSCL3 TIMELY PREFETCHES:          0 LATE PREFETCHES: 0 DROPPED PREFETCHES: 0
PSCL3 PREFETCHES SAME FILL-ORIGIN LEVEL: 0 DIFFERENT FILL-ORIGIN LEVEL: 0

PSCL2 TOTAL     ACCESS:     169784  HIT:     169486  MISS:        298  HIT %:    99.8245  MISS %:   0.175517   MPKI: 0.00596
PSCL2 LOAD TRANSLATION ACCESS:     169784  HIT:     169486  MISS:        298  HIT %:    99.8245  MISS %:   0.175517   MPKI: 0.00596
PSCL2 PREFETCH  REQUESTED:          0  ISSUED:          0  USEFUL:          0  USELESS:          0
PSCL2 USEFUL LOAD PREFETCHES:          0 PREFETCH ISSUED TO LOWER LEVEL:          0  ACCURACY: -nan
PSCL2 TIMELY PREFETCHES:          0 LATE PREFETCHES: 0 DROPPED PREFETCHES: 0
PSCL2 PREFETCHES SAME FILL-ORIGIN LEVEL: 0 DIFFERENT FILL-ORIGIN LEVEL: 0

LLC TOTAL     ACCESS:    1469340  HIT:     666005  MISS:     803335  HIT %:    45.3268  MISS %:    54.6732   MPKI: 16.0667
LLC LOAD      ACCESS:     961998  HIT:     175301  MISS:     786697  HIT %:    18.2226  MISS %:    81.7774   MPKI: 15.7339
LLC WRITEBACK ACCESS:     485712  HIT:     485712  MISS:          0  HIT %:        100  MISS %:          0   MPKI: 0
LLC LOAD TRANSLATION ACCESS:      21630  HIT:       4992  MISS:      16638  HIT %:    23.0791  MISS %:    76.9209   MPKI: 0.33276
LLC PREFETCH  REQUESTED:          0  ISSUED:          0  USEFUL:          0  USELESS:          0
LLC USEFUL LOAD PREFETCHES:          0 PREFETCH ISSUED TO LOWER LEVEL:          0  ACCURACY: -nan
LLC TIMELY PREFETCHES:          0 LATE PREFETCHES: 0 DROPPED PREFETCHES: 0
LLC PREFETCHES SAME FILL-ORIGIN LEVEL: 0 DIFFERENT FILL-ORIGIN LEVEL: 0
LLC AVERAGE MISS LATENCY: 168.586 cycles
LLC RQ	ACCESS:     983627	FORWARD:          0	MERGED:          0	TO_CACHE:     983627
LLC WQ	ACCESS:     485712	FORWARD:          0	MERGED:          0	TO_CACHE:     485712

LLC Dense regions hint to LLC: 0

RAW hits: 89034
Loads Generated: 32010390
Loads sent to L1D: 31921354
Stores Generated: 3205648
Stores sent to L1D: 3205648
Major fault: 0 Minor fault: 257109
Allocated PAGES: 257109

DRAM Statistics
 CHANNEL 0
 RQ ROW_BUFFER_HIT:     259545  ROW_BUFFER_MISS:     543789
 DBUS_CONGESTED:        690
 WQ ROW_BUFFER_HIT:     136473  ROW_BUFFER_MISS:     349098  FULL:          0

 AVG_CONGESTED_CYCLE: 5
 All warmup complete: 2
Channel 0 Bank busy for read cycles: 0
Channel 0 Bank busy for write cycles: 0
Channel 0
Rank 0
0banks busy for read cycles: 9063796
0banks busy for write cycles: 102882
1banks busy for read cycles: 37538223
1banks busy for write cycles: 15362625
2banks busy for read cycles: 15960575
2banks busy for write cycles: 13411256
3banks busy for read cycles: 5461092
3banks busy for write cycles: 8367881
4banks busy for read cycles: 1633520
4banks busy for write cycles: 3944004
5banks busy for read cycles: 367200
5banks busy for write cycles: 1356284
6banks busy for read cycles: 51824
6banks busy for write cycles: 305192
7banks busy for read cycles: 3817
7banks busy for write cycles: 31185
8banks busy for read cycles: 43
8banks busy for write cycles: 1415

CPU 0 Branch Prediction Accuracy: 93.3275% MPKI: 0.80204 Average ROB Occupancy at Mispredict: 250.025
Branch types
NOT_BRANCH: 49399000 98.798%
BRANCH_DIRECT_JUMP: 40061 0.080122%
BRANCH_INDIRECT: 0 0%
BRANCH_CONDITIONAL: 560941 1.12188%
BRANCH_DIRECT_CALL: 0 0%
BRANCH_INDIRECT_CALL: 0 0%
BRANCH_RETURN: 0 0%
BRANCH_OTHER: 0 0%

DRAM PAGES: 1048576
Allocated PAGES: 257109
