
*** ChampSim Multicore Out-of-Order Simulator ***

Warmup Instructions: 50000000
Simulation Instructions: 50000000
Number of CPUs: 1
LLC sets: 2048
LLC ways: 16
Off-chip DRAM Size: 4096 MB Channels: 1 Width: 64-bit Data Rate: 6400 MT/s
CPU 0 runs traces/SPEC-CPU2017/654.roms_s-1007B.champsimtrace.xz
.xz
CPU 0 Bimodal branch predictor
BTB has LRU replacement policy
ITLB has LRU replacement policy
DTLB has LRU replacement policy
STLB has LRU replacement policy
L1I has LRU replacement policy
L1D has LRU replacement policy
L2C has LRU replacement policy
LLC has LRU replacement policy
Heartbeat CPU 0 instructions: 10000000 cycles: 3078069 heartbeat IPC: 3.24879 cumulative IPC: 3.24879 (Simulation time: 0 hr 0 min 35 sec) 
Heartbeat CPU 0 instructions: 20000000 cycles: 6155727 heartbeat IPC: 3.24922 cumulative IPC: 3.24901 (Simulation time: 0 hr 1 min 10 sec) 
Heartbeat CPU 0 instructions: 30000000 cycles: 9233671 heartbeat IPC: 3.24892 cumulative IPC: 3.24898 (Simulation time: 0 hr 1 min 45 sec) 
Heartbeat CPU 0 instructions: 40000000 cycles: 12311478 heartbeat IPC: 3.24907 cumulative IPC: 3.249 (Simulation time: 0 hr 2 min 20 sec) 
Heartbeat CPU 0 instructions: 50000000 cycles: 15478543 heartbeat IPC: 3.1575 cumulative IPC: 3.23028 (Simulation time: 0 hr 2 min 59 sec) 

Warmup complete CPU 0 instructions: 50000004 cycles: 15478544 (Simulation time: 0 hr 2 min 59 sec) 

Heartbeat CPU 0 instructions: 60000000 cycles: 33864223 heartbeat IPC: 0.543902 cumulative IPC: 0.543901 (Simulation time: 0 hr 3 min 51 sec) 
Heartbeat CPU 0 instructions: 70000000 cycles: 53535868 heartbeat IPC: 0.508346 cumulative IPC: 0.525523 (Simulation time: 0 hr 4 min 39 sec) 
Heartbeat CPU 0 instructions: 80000000 cycles: 73173171 heartbeat IPC: 0.509235 cumulative IPC: 0.519979 (Simulation time: 0 hr 5 min 27 sec) 
Heartbeat CPU 0 instructions: 90000000 cycles: 92791549 heartbeat IPC: 0.509726 cumulative IPC: 0.517377 (Simulation time: 0 hr 6 min 16 sec) 
Heartbeat CPU 0 instructions: 100000000 cycles: 112403878 heartbeat IPC: 0.509883 cumulative IPC: 0.515861 (Simulation time: 0 hr 7 min 4 sec) 
Finished CPU 0 instructions: 50000001 cycles: 96925358 cumulative IPC: 0.515861 (Simulation time: 0 hr 7 min 4 sec) 

ChampSim completed all CPUs

Region of Interest Statistics

CPU 0 cumulative IPC: 0.515861 instructions: 50000001 cycles: 96925358
ITLB TOTAL     ACCESS:    8512641  HIT:    8512639  MISS:          2  HIT %:        100  MISS %: 2.34945e-05   MPKI: 4e-05
ITLB LOAD TRANSLATION ACCESS:    8512641  HIT:    8512639  MISS:          2  HIT %:        100  MISS %: 2.34945e-05   MPKI: 4e-05
ITLB PREFETCH  REQUESTED:          0  ISSUED:          0  USEFUL:          0  USELESS:          0
ITLB USEFUL LOAD PREFETCHES:          0 PREFETCH ISSUED TO LOWER LEVEL:          0  ACCURACY: -nan
ITLB TIMELY PREFETCHES:          0 LATE PREFETCHES: 0 DROPPED PREFETCHES: 0
ITLB PREFETCHES SAME FILL-ORIGIN LEVEL: 0 DIFFERENT FILL-ORIGIN LEVEL: 0
ITLB AVERAGE MISS LATENCY: 325.5 cycles
ITLB RQ	ACCESS:   10733243	FORWARD:          0	MERGED:    2220602	TO_CACHE:    8512641

DTLB TOTAL     ACCESS:   13541300  HIT:   13535423  MISS:       5877  HIT %:    99.9566  MISS %:  0.0434006   MPKI: 0.11754
DTLB LOAD TRANSLATION ACCESS:   13541300  HIT:   13535423  MISS:       5877  HIT %:    99.9566  MISS %:  0.0434006   MPKI: 0.11754
DTLB PREFETCH  REQUESTED:          0  ISSUED:          0  USEFUL:          0  USELESS:          0
DTLB USEFUL LOAD PREFETCHES:          0 PREFETCH ISSUED TO LOWER LEVEL:          0  ACCURACY: -nan
DTLB TIMELY PREFETCHES:          0 LATE PREFETCHES: 0 DROPPED PREFETCHES: 0
DTLB PREFETCHES SAME FILL-ORIGIN LEVEL: 0 DIFFERENT FILL-ORIGIN LEVEL: 0
DTLB AVERAGE MISS LATENCY: 165.404 cycles
DTLB RQ	ACCESS:   15267507	FORWARD:          0	MERGED:    1718557	TO_CACHE:   13548950

STLB TOTAL     ACCESS:      36109  HIT:      30241  MISS:       5868  HIT %:    83.7492  MISS %:    16.2508   MPKI: 0.11736
STLB LOAD TRANSLATION ACCESS:       5879  HIT:        197  MISS:       5682  HIT %:    3.35091  MISS %:    96.6491   MPKI: 0.11364
STLB TRANSLATION FROM L1D PREFETCHER ACCESS:      30230  HIT:      30044  MISS:        186  HIT %:    99.3847  MISS %:   0.615283   MPKI: 0.00372
STLB PREFETCH  REQUESTED:          0  ISSUED:          0  USEFUL:        186  USELESS:          0
STLB USEFUL LOAD PREFETCHES:        186 PREFETCH ISSUED TO LOWER LEVEL:          0  ACCURACY: inf
STLB TIMELY PREFETCHES:        186 LATE PREFETCHES: 0 DROPPED PREFETCHES: 0
STLB PREFETCHES SAME FILL-ORIGIN LEVEL: 0 DIFFERENT FILL-ORIGIN LEVEL: 0
STLB AVERAGE MISS LATENCY: 157.793 cycles
STLB RQ	ACCESS:     150096	FORWARD:          0	MERGED:     113987	TO_CACHE:      36109

STLB Hit, L1D data hit: 0
STLB Hit, L2C data hit: 0
STLB Hit, LLC data hit: 0
STLB Hit, LLC data miss: 0
STLB STLB hints to L2: 0
L1D TOTAL     ACCESS:   14997508  HIT:   14747717  MISS:     249791  HIT %:    98.3344  MISS %:    1.66555   MPKI: 4.99582
L1D LOAD      ACCESS:    9239372  HIT:    9205421  MISS:      33951  HIT %:    99.6325  MISS %:    0.36746   MPKI: 0.67902
L1D RFO       ACCESS:    5622940  HIT:    5538360  MISS:      84580  HIT %:    98.4958  MISS %:     1.5042   MPKI: 1.6916
L1D PREFETCH  ACCESS:     135196  HIT:       3936  MISS:     131260  HIT %:    2.91133  MISS %:    97.0887   MPKI: 2.6252
AGUS PREFETCH L1 MISS: 0
L1D PREFETCH  REQUESTED:     296700  ISSUED:     288434  USEFUL:     123413  USELESS:       7861
L1D USEFUL LOAD PREFETCHES:     123413 PREFETCH ISSUED TO LOWER LEVEL:     137512  ACCURACY: 89.7471
L1D TIMELY PREFETCHES:     123413 LATE PREFETCHES: 6252 DROPPED PREFETCHES: 0
L1D PREFETCHES SAME FILL-ORIGIN LEVEL: 137512 DIFFERENT FILL-ORIGIN LEVEL: 0
L1D AVERAGE MISS LATENCY: 237.813 cycles
L1D RQ	ACCESS:   11797597	FORWARD:          0	MERGED:    2452414	TO_CACHE:    9288411
L1D WQ	ACCESS:    6358286	FORWARD:      56772	MERGED:     379190	TO_CACHE:    5979096
L1D PQ	ACCESS:     144217	FORWARD:          0	MERGED:          0	TO_CACHE:     144217

L1D UNIQUE REGIONS ACCESSED: 0
L1D REGIONS CONFLICTS: 0
L1D Cross Page Prefetch Requests: 427
L1D Same Page Prefetch Requests: 307111
L1D ROI Sum of L1D PQ occupancy: 2365750
L1D PREFETCHES PUSHED FROM L2C: 0
L1I TOTAL     ACCESS:   10733233  HIT:   10733197  MISS:         36  HIT %:    99.9997  MISS %: 0.000335407   MPKI: 0.00072
L1I LOAD      ACCESS:   10733233  HIT:   10733197  MISS:         36  HIT %:    99.9997  MISS %: 0.000335407   MPKI: 0.00072
L1I PREFETCH  REQUESTED:          0  ISSUED:          0  USEFUL:          0  USELESS:          0
L1I USEFUL LOAD PREFETCHES:          0 PREFETCH ISSUED TO LOWER LEVEL:          0  ACCURACY: -nan
L1I TIMELY PREFETCHES:          0 LATE PREFETCHES: 0 DROPPED PREFETCHES: 0
L1I PREFETCHES SAME FILL-ORIGIN LEVEL: 0 DIFFERENT FILL-ORIGIN LEVEL: 0
L1I AVERAGE MISS LATENCY: 233.972 cycles
L1I RQ	ACCESS:   14239939	FORWARD:          0	MERGED:    3506696	TO_CACHE:   10733243

BTB TOTAL     ACCESS:    3368722  HIT:    2989495  MISS:     379227  HIT %:    88.7427  MISS %:    11.2573   MPKI: 7.58454
BTB BRANCH_DIRECT_JUMP	ACCESS:     379197  HIT:     379193  MISS:          4
BTB BRANCH_INDIRECT	ACCESS:          0  HIT:          0  MISS:          0
BTB BRANCH_CONDITIONAL	ACCESS:    1472752  HIT:    1472732  MISS:         20
BTB BRANCH_DIRECT_CALL	ACCESS:     758387  HIT:     758379  MISS:          8
BTB BRANCH_INDIRECT_CALL	ACCESS:          0  HIT:          0  MISS:          0
BTB BRANCH_RETURN	ACCESS:     758386  HIT:     379191  MISS:     379195
BTB BRANCH_OTHER ACCESS:          0  HIT:          0  MISS:          0

L2C TOTAL     ACCESS:     340120  HIT:      89152  MISS:     250968  HIT %:    26.2119  MISS %:    73.7881   MPKI: 5.01936
L2C LOAD      ACCESS:      27735  HIT:         38  MISS:      27697  HIT %:   0.137011  MISS %:     99.863   MPKI: 0.55394
L2C DATA LOAD MPKI: 0.55322
L2C INSTRUCTION LOAD MPKI: 0.00072
L2C RFO       ACCESS:      84580  HIT:          0  MISS:      84580  HIT %:          0  MISS %:        100   MPKI: 1.6916
L2C PREFETCH  ACCESS:     137512  HIT:         57  MISS:     137455  HIT %:  0.0414509  MISS %:    99.9585   MPKI: 2.7491
AGUS PREFETCH L1 MISS: 0
L2C DATA PREFETCH MPKI: 2.7491
L2C INSTRUCTION PREFETCH MPKI: 0
L2C WRITEBACK ACCESS:      84415  HIT:      84409  MISS:          6  HIT %:    99.9929  MISS %: 0.00710774   MPKI: 0.00012
L2C LOAD TRANSLATION ACCESS:       5692  HIT:       4484  MISS:       1208  HIT %:    78.7772  MISS %:    21.2228   MPKI: 0.02416
L2C TRANSLATION FROM L1D PREFETCHER ACCESS:        186  HIT:        164  MISS:         22  HIT %:     88.172  MISS %:     11.828   MPKI: 0.00044
L2C PREFETCH  REQUESTED:          0  ISSUED:          0  USEFUL:         34  USELESS:     137924
L2C USEFUL LOAD PREFETCHES:         34 PREFETCH ISSUED TO LOWER LEVEL:     137455  ACCURACY: 0.0247354
L2C TIMELY PREFETCHES:         34 LATE PREFETCHES: 0 DROPPED PREFETCHES: 0
L2C PREFETCHES SAME FILL-ORIGIN LEVEL: 0 DIFFERENT FILL-ORIGIN LEVEL: 0
L2C AVERAGE MISS LATENCY: 221.733 cycles
L2C RQ	ACCESS:     118193	FORWARD:          0	MERGED:          0	TO_CACHE:     118193
L2C WQ	ACCESS:      84415	FORWARD:          0	MERGED:          0	TO_CACHE:      84415
L2C PQ	ACCESS:     137512	FORWARD:          0	MERGED:          0	TO_CACHE:     137512

L2C Instructions Evicting Data 36
L2C Translations Evicting Data 1229
L2C Data Evicting Data 248405
L2C Instructions Evicting Instructions 0
L2C Translations Evicting Instructions 0
L2C Data Evicting Instructions 36
L2C Instructions Evicting Translations 0
L2C Translations Evicting Translations 1
L2C Data Evicting Translations 1255
L2C Dense regions hint from L2: 0
PSCL5 TOTAL     ACCESS:       5868  HIT:       5868  MISS:          0  HIT %:        100  MISS %:          0   MPKI: 0
PSCL5 LOAD TRANSLATION ACCESS:       5682  HIT:       5682  MISS:          0  HIT %:        100  MISS %:          0   MPKI: 0
PSCL5 TRANSLATION FROM L1D PREFETCHER ACCESS:        186  HIT:        186  MISS:          0  HIT %:        100  MISS %:          0   MPKI: 0
PSCL5 PREFETCH  REQUESTED:          0  ISSUED:          0  USEFUL:          0  USELESS:          0
PSCL5 USEFUL LOAD PREFETCHES:          0 PREFETCH ISSUED TO LOWER LEVEL:          0  ACCURACY: -nan
PSCL5 TIMELY PREFETCHES:          0 LATE PREFETCHES: 0 DROPPED PREFETCHES: 0
PSCL5 PREFETCHES SAME FILL-ORIGIN LEVEL: 0 DIFFERENT FILL-ORIGIN LEVEL: 0

PSCL4 TOTAL     ACCESS:       5868  HIT:       5868  MISS:          0  HIT %:        100  MISS %:          0   MPKI: 0
PSCL4 LOAD TRANSLATION ACCESS:       5682  HIT:       5682  MISS:          0  HIT %:        100  MISS %:          0   MPKI: 0
PSCL4 TRANSLATION FROM L1D PREFETCHER ACCESS:        186  HIT:        186  MISS:          0  HIT %:        100  MISS %:          0   MPKI: 0
PSCL4 PREFETCH  REQUESTED:          0  ISSUED:          0  USEFUL:          0  USELESS:          0
PSCL4 USEFUL LOAD PREFETCHES:          0 PREFETCH ISSUED TO LOWER LEVEL:          0  ACCURACY: -nan
PSCL4 TIMELY PREFETCHES:          0 LATE PREFETCHES: 0 DROPPED PREFETCHES: 0
PSCL4 PREFETCHES SAME FILL-ORIGIN LEVEL: 0 DIFFERENT FILL-ORIGIN LEVEL: 0

PSCL3 TOTAL     ACCESS:       5868  HIT:       5867  MISS:          1  HIT %:     99.983  MISS %:  0.0170416   MPKI: 2e-05
PSCL3 LOAD TRANSLATION ACCESS:       5682  HIT:       5681  MISS:          1  HIT %:    99.9824  MISS %:  0.0175994   MPKI: 2e-05
PSCL3 TRANSLATION FROM L1D PREFETCHER ACCESS:        186  HIT:        186  MISS:          0  HIT %:        100  MISS %:          0   MPKI: 0
PSCL3 PREFETCH  REQUESTED:          0  ISSUED:          0  USEFUL:          0  USELESS:          0
PSCL3 USEFUL LOAD PREFETCHES:          0 PREFETCH ISSUED TO LOWER LEVEL:          0  ACCURACY: -nan
PSCL3 TIMELY PREFETCHES:          0 LATE PREFETCHES: 0 DROPPED PREFETCHES: 0
PSCL3 PREFETCHES SAME FILL-ORIGIN LEVEL: 0 DIFFERENT FILL-ORIGIN LEVEL: 0

PSCL2 TOTAL     ACCESS:       5868  HIT:       5843  MISS:         25  HIT %:     99.574  MISS %:    0.42604   MPKI: 0.0005
PSCL2 LOAD TRANSLATION ACCESS:       5682  HIT:       5657  MISS:         25  HIT %:      99.56  MISS %:   0.439986   MPKI: 0.0005
PSCL2 TRANSLATION FROM L1D PREFETCHER ACCESS:        186  HIT:        186  MISS:          0  HIT %:        100  MISS %:          0   MPKI: 0
PSCL2 PREFETCH  REQUESTED:          0  ISSUED:          0  USEFUL:          0  USELESS:          0
PSCL2 USEFUL LOAD PREFETCHES:          0 PREFETCH ISSUED TO LOWER LEVEL:          0  ACCURACY: -nan
PSCL2 TIMELY PREFETCHES:          0 LATE PREFETCHES: 0 DROPPED PREFETCHES: 0
PSCL2 PREFETCHES SAME FILL-ORIGIN LEVEL: 0 DIFFERENT FILL-ORIGIN LEVEL: 0

LLC TOTAL     ACCESS:     334642  HIT:      83688  MISS:     250954  HIT %:    25.0082  MISS %:    74.9918   MPKI: 5.01908
LLC LOAD      ACCESS:      27697  HIT:          5  MISS:      27692  HIT %:  0.0180525  MISS %:    99.9819   MPKI: 0.55384
LLC RFO       ACCESS:      84580  HIT:          0  MISS:      84580  HIT %:          0  MISS %:        100   MPKI: 1.6916
LLC PREFETCH  ACCESS:     137455  HIT:          1  MISS:     137454  HIT %: 0.000727511  MISS %:    99.9993   MPKI: 2.74908
AGUS PREFETCH L1 MISS: 0
LLC WRITEBACK ACCESS:      83680  HIT:      83676  MISS:          4  HIT %:    99.9952  MISS %: 0.00478011   MPKI: 8e-05
LLC LOAD TRANSLATION ACCESS:       1208  HIT:          6  MISS:       1202  HIT %:   0.496689  MISS %:    99.5033   MPKI: 0.02404
LLC TRANSLATION FROM L1D PREFETCHER ACCESS:         22  HIT:          0  MISS:         22  HIT %:          0  MISS %:        100   MPKI: 0.00044
LLC PREFETCH  REQUESTED:          0  ISSUED:          0  USEFUL:          1  USELESS:     139285
LLC USEFUL LOAD PREFETCHES:          1 PREFETCH ISSUED TO LOWER LEVEL:     137454  ACCURACY: 0.000727516
LLC TIMELY PREFETCHES:          1 LATE PREFETCHES: 0 DROPPED PREFETCHES: 0
LLC PREFETCHES SAME FILL-ORIGIN LEVEL: 0 DIFFERENT FILL-ORIGIN LEVEL: 0
LLC AVERAGE MISS LATENCY: 190.334 cycles
LLC RQ	ACCESS:     113507	FORWARD:          0	MERGED:          0	TO_CACHE:     113507
LLC WQ	ACCESS:      83680	FORWARD:          0	MERGED:          0	TO_CACHE:      83680
LLC PQ	ACCESS:     137455	FORWARD:          0	MERGED:          0	TO_CACHE:     137455

LLC Dense regions hint to LLC: 0

RAW hits: 1664093
Loads Generated: 13461690
Loads sent to L1D: 11797597
Stores Generated: 6358280
Stores sent to L1D: 6358286
Major fault: 0 Minor fault: 10630
Allocated PAGES: 10630

stream: 
stream:times selected: 63957
stream:pref_filled: 253361
stream:pref_useful: 243930
stream:pref_late: 6132
stream:misses: 11026
stream:misses_by_poll: 0

CS: 
CS:times selected: 10633
CS:pref_filled: 10834
CS:pref_useful: 9820
CS:pref_late: 2
CS:misses: 16273
CS:misses_by_poll: 8

CPLX: 
CPLX:times selected: 53172
CPLX:pref_filled: 21406
CPLX:pref_useful: 18273
CPLX:pref_late: 27
CPLX:misses: 83722
CPLX:misses_by_poll: 30

ISB: 
ISB:times selected:1015
ISB:pref_filled: 1081
ISB:pref_useful: 1080
ISB:pref_late: 0
ISB:misses: 2028
ISB:misses_by_poll: 7

NL_L1: 
NL:times selected: 158
NL:pref_filled: 141
NL:pref_useful: 140
NL:pref_late: 3
NL:misses: 193
NL:misses_by_poll: 0

total selections: 128935
total_filled: 131260
total_useful: 123413
total_late: 6338
total_polluted: 45
total_misses_after_warmup: 82994
conflicts: 71

test: 8406
ISB Prefetcher final stats
Training Unit Size: 16
Addr table size: 62275 62275


Triggers: 63963
No Prediction: 62948 98.4131
Stream end: 365
No translation: 324329 507.057
Predictions: 1242 1.94175


Stream divergence: 1420 2.22003
Stream divergence -- new stream: 0

DRAM Statistics
 CHANNEL 0
 RQ ROW_BUFFER_HIT:      75990  ROW_BUFFER_MISS:     174960
 DBUS_CONGESTED:         52
 WQ ROW_BUFFER_HIT:      10063  ROW_BUFFER_MISS:      71717  FULL:          0

 AVG_CONGESTED_CYCLE: 5
 All warmup complete: 2
Channel 0 Bank busy for read cycles: 0
Channel 0 Bank busy for write cycles: 0
Channel 0
Rank 0
0banks busy for read cycles: 83879477
0banks busy for write cycles: 12118
1banks busy for read cycles: 3781928
1banks busy for write cycles: 1495011
2banks busy for read cycles: 1178409
2banks busy for write cycles: 105648
3banks busy for read cycles: 843047
3banks busy for write cycles: 89952
4banks busy for read cycles: 649833
4banks busy for write cycles: 80864
5banks busy for read cycles: 444167
5banks busy for write cycles: 72434
6banks busy for read cycles: 530721
6banks busy for write cycles: 63879
7banks busy for read cycles: 903661
7banks busy for write cycles: 120716
8banks busy for read cycles: 930514
8banks busy for write cycles: 1742980

CPU 0 Branch Prediction Accuracy: 99.9746% MPKI: 0.0287 Average ROB Occupancy at Mispredict: 104.551
Branch types
NOT_BRANCH: 44355226 88.7105%
BRANCH_DIRECT_JUMP: 379197 0.758394%
BRANCH_INDIRECT: 0 0%
BRANCH_CONDITIONAL: 3748585 7.49717%
BRANCH_DIRECT_CALL: 758387 1.51677%
BRANCH_INDIRECT_CALL: 0 0%
BRANCH_RETURN: 758386 1.51677%
BRANCH_OTHER: 0 0%

DRAM PAGES: 1048576
Allocated PAGES: 10630
