
*** ChampSim Multicore Out-of-Order Simulator ***

Warmup Instructions: 50000000
Simulation Instructions: 50000000
Number of CPUs: 1
LLC sets: 2048
LLC ways: 16
Off-chip DRAM Size: 4096 MB Channels: 1 Width: 64-bit Data Rate: 6400 MT/s
CPU 0 runs ./traces/SPEC-CPU2017/654.roms_s-1007B.champsimtrace.xz
.xz
CPU 0 Bimodal branch predictor
BTB has LRU replacement policy
ITLB has LRU replacement policy
DTLB has LRU replacement policy
STLB has LRU replacement policy
L1I has LRU replacement policy
L1D has LRU replacement policy
L2C has LRU replacement policy
LLC has LRU replacement policy
Heartbeat CPU 0 instructions: 10000000 cycles: 3080860 heartbeat IPC: 3.24585 cumulative IPC: 3.24585 (Simulation time: 0 hr 0 min 34 sec) 
Heartbeat CPU 0 instructions: 20000000 cycles: 6161531 heartbeat IPC: 3.24605 cumulative IPC: 3.24595 (Simulation time: 0 hr 1 min 8 sec) 
Heartbeat CPU 0 instructions: 30000000 cycles: 9242298 heartbeat IPC: 3.24594 cumulative IPC: 3.24595 (Simulation time: 0 hr 1 min 42 sec) 
Heartbeat CPU 0 instructions: 40000000 cycles: 12323000 heartbeat IPC: 3.24601 cumulative IPC: 3.24596 (Simulation time: 0 hr 2 min 16 sec) 
Heartbeat CPU 0 instructions: 50000000 cycles: 15517644 heartbeat IPC: 3.13024 cumulative IPC: 3.22214 (Simulation time: 0 hr 2 min 52 sec) 

Warmup complete CPU 0 instructions: 50000004 cycles: 15517645 (Simulation time: 0 hr 2 min 52 sec) 

Heartbeat CPU 0 instructions: 60000000 cycles: 43967877 heartbeat IPC: 0.351491 cumulative IPC: 0.351491 (Simulation time: 0 hr 3 min 51 sec) 
Heartbeat CPU 0 instructions: 70000000 cycles: 64529839 heartbeat IPC: 0.486335 cumulative IPC: 0.408062 (Simulation time: 0 hr 4 min 39 sec) 
Heartbeat CPU 0 instructions: 80000000 cycles: 84894451 heartbeat IPC: 0.491048 cumulative IPC: 0.432421 (Simulation time: 0 hr 5 min 27 sec) 
Heartbeat CPU 0 instructions: 90000000 cycles: 105152277 heartbeat IPC: 0.493636 cumulative IPC: 0.446256 (Simulation time: 0 hr 6 min 15 sec) 
Heartbeat CPU 0 instructions: 100000000 cycles: 125402999 heartbeat IPC: 0.49381 cumulative IPC: 0.45502 (Simulation time: 0 hr 7 min 3 sec) 
Finished CPU 0 instructions: 50000001 cycles: 109885378 cumulative IPC: 0.45502 (Simulation time: 0 hr 7 min 3 sec) 

ChampSim completed all CPUs

Region of Interest Statistics

CPU 0 cumulative IPC: 0.45502 instructions: 50000001 cycles: 109885378
ITLB TOTAL     ACCESS:    8597248  HIT:    8597246  MISS:          2  HIT %:        100  MISS %: 2.32633e-05   MPKI: 4e-05
ITLB LOAD TRANSLATION ACCESS:    8597248  HIT:    8597246  MISS:          2  HIT %:        100  MISS %: 2.32633e-05   MPKI: 4e-05
ITLB PREFETCH  REQUESTED:          0  ISSUED:          0  USEFUL:          0  USELESS:          0
ITLB USEFUL LOAD PREFETCHES:          0 PREFETCH ISSUED TO LOWER LEVEL:          0  ACCURACY: -nan
ITLB TIMELY PREFETCHES:          0 LATE PREFETCHES: 0 DROPPED PREFETCHES: 0
ITLB PREFETCHES SAME FILL-ORIGIN LEVEL: 0 DIFFERENT FILL-ORIGIN LEVEL: 0
ITLB AVERAGE MISS LATENCY: 325.5 cycles
ITLB RQ	ACCESS:   10801063	FORWARD:          0	MERGED:    2203815	TO_CACHE:    8597248

DTLB TOTAL     ACCESS:   13350670  HIT:   13344789  MISS:       5881  HIT %:    99.9559  MISS %:  0.0440502   MPKI: 0.11762
DTLB LOAD TRANSLATION ACCESS:   13350670  HIT:   13344789  MISS:       5881  HIT %:    99.9559  MISS %:  0.0440502   MPKI: 0.11762
DTLB PREFETCH  REQUESTED:          0  ISSUED:          0  USEFUL:          0  USELESS:          0
DTLB USEFUL LOAD PREFETCHES:          0 PREFETCH ISSUED TO LOWER LEVEL:          0  ACCURACY: -nan
DTLB TIMELY PREFETCHES:          0 LATE PREFETCHES: 0 DROPPED PREFETCHES: 0
DTLB PREFETCHES SAME FILL-ORIGIN LEVEL: 0 DIFFERENT FILL-ORIGIN LEVEL: 0
DTLB AVERAGE MISS LATENCY: 154.602 cycles
DTLB RQ	ACCESS:   14914627	FORWARD:          0	MERGED:    1558937	TO_CACHE:   13355690

STLB TOTAL     ACCESS:       5883  HIT:         15  MISS:       5868  HIT %:   0.254972  MISS %:     99.745   MPKI: 0.11736
STLB LOAD TRANSLATION ACCESS:       5883  HIT:         15  MISS:       5868  HIT %:   0.254972  MISS %:     99.745   MPKI: 0.11736
STLB PREFETCH  REQUESTED:          0  ISSUED:          0  USEFUL:          0  USELESS:          0
STLB USEFUL LOAD PREFETCHES:          0 PREFETCH ISSUED TO LOWER LEVEL:          0  ACCURACY: -nan
STLB TIMELY PREFETCHES:          0 LATE PREFETCHES: 0 DROPPED PREFETCHES: 0
STLB PREFETCHES SAME FILL-ORIGIN LEVEL: 0 DIFFERENT FILL-ORIGIN LEVEL: 0
STLB AVERAGE MISS LATENCY: 145.683 cycles
STLB RQ	ACCESS:       5883	FORWARD:          0	MERGED:          0	TO_CACHE:       5883

STLB Hit, L1D data hit: 0
STLB Hit, L2C data hit: 0
STLB Hit, LLC data hit: 0
STLB Hit, LLC data miss: 0
STLB STLB hints to L2: 0
L1D TOTAL     ACCESS:   14556059  HIT:   14314145  MISS:     241914  HIT %:    98.3381  MISS %:    1.66195   MPKI: 4.83828
L1D LOAD      ACCESS:    8819313  HIT:    8661979  MISS:     157334  HIT %:     98.216  MISS %:    1.78397   MPKI: 3.14668
L1D RFO       ACCESS:    5736746  HIT:    5652166  MISS:      84580  HIT %:    98.5256  MISS %:    1.47435   MPKI: 1.6916
L1D PREFETCH  REQUESTED:          0  ISSUED:          0  USEFUL:          0  USELESS:          0
L1D USEFUL LOAD PREFETCHES:          0 PREFETCH ISSUED TO LOWER LEVEL:          0  ACCURACY: -nan
L1D TIMELY PREFETCHES:          0 LATE PREFETCHES: 0 DROPPED PREFETCHES: 0
L1D PREFETCHES SAME FILL-ORIGIN LEVEL: 0 DIFFERENT FILL-ORIGIN LEVEL: 0
L1D AVERAGE MISS LATENCY: 226.415 cycles
L1D RQ	ACCESS:   11792037	FORWARD:          0	MERGED:    2805037	TO_CACHE:    8935531
L1D WQ	ACCESS:    6358286	FORWARD:      51469	MERGED:     379190	TO_CACHE:    5979096

L1D UNIQUE REGIONS ACCESSED: 0
L1D REGIONS CONFLICTS: 0
L1D Cross Page Prefetch Requests: 0
L1D Same Page Prefetch Requests: 0
L1D ROI Sum of L1D PQ occupancy: 0
L1D PREFETCHES PUSHED FROM L2C: 0
L1I TOTAL     ACCESS:   10801053  HIT:   10801017  MISS:         36  HIT %:    99.9997  MISS %: 0.000333301   MPKI: 0.00072
L1I LOAD      ACCESS:   10801053  HIT:   10801017  MISS:         36  HIT %:    99.9997  MISS %: 0.000333301   MPKI: 0.00072
L1I PREFETCH  REQUESTED:          0  ISSUED:          0  USEFUL:          0  USELESS:          0
L1I USEFUL LOAD PREFETCHES:          0 PREFETCH ISSUED TO LOWER LEVEL:          0  ACCURACY: -nan
L1I TIMELY PREFETCHES:          0 LATE PREFETCHES: 0 DROPPED PREFETCHES: 0
L1I PREFETCHES SAME FILL-ORIGIN LEVEL: 0 DIFFERENT FILL-ORIGIN LEVEL: 0
L1I AVERAGE MISS LATENCY: 227.889 cycles
L1I RQ	ACCESS:   14365959	FORWARD:          0	MERGED:    3564896	TO_CACHE:   10801063

BTB TOTAL     ACCESS:    3368722  HIT:    2989495  MISS:     379227  HIT %:    88.7427  MISS %:    11.2573   MPKI: 7.58454
BTB BRANCH_DIRECT_JUMP	ACCESS:     379197  HIT:     379193  MISS:          4
BTB BRANCH_INDIRECT	ACCESS:          0  HIT:          0  MISS:          0
BTB BRANCH_CONDITIONAL	ACCESS:    1472752  HIT:    1472732  MISS:         20
BTB BRANCH_DIRECT_CALL	ACCESS:     758387  HIT:     758379  MISS:          8
BTB BRANCH_INDIRECT_CALL	ACCESS:          0  HIT:          0  MISS:          0
BTB BRANCH_RETURN	ACCESS:     758386  HIT:     379191  MISS:     379195
BTB BRANCH_OTHER ACCESS:          0  HIT:          0  MISS:          0

L2C TOTAL     ACCESS:     332244  HIT:      89064  MISS:     243180  HIT %:    26.8068  MISS %:    73.1932   MPKI: 4.8636
L2C LOAD      ACCESS:     157370  HIT:          4  MISS:     157366  HIT %: 0.00254178  MISS %:    99.9975   MPKI: 3.14732
L2C DATA LOAD MPKI: 3.1466
L2C INSTRUCTION LOAD MPKI: 0.00072
L2C RFO       ACCESS:      84580  HIT:          0  MISS:      84580  HIT %:          0  MISS %:        100   MPKI: 1.6916
L2C WRITEBACK ACCESS:      84416  HIT:      84412  MISS:          4  HIT %:    99.9953  MISS %: 0.00473844   MPKI: 8e-05
L2C LOAD TRANSLATION ACCESS:       5878  HIT:       4648  MISS:       1230  HIT %:    79.0745  MISS %:    20.9255   MPKI: 0.0246
L2C PREFETCH  REQUESTED:          0  ISSUED:          0  USEFUL:          0  USELESS:          0
L2C USEFUL LOAD PREFETCHES:          0 PREFETCH ISSUED TO LOWER LEVEL:          0  ACCURACY: -nan
L2C TIMELY PREFETCHES:          0 LATE PREFETCHES: 0 DROPPED PREFETCHES: 0
L2C PREFETCHES SAME FILL-ORIGIN LEVEL: 0 DIFFERENT FILL-ORIGIN LEVEL: 0
L2C AVERAGE MISS LATENCY: 210.889 cycles
L2C RQ	ACCESS:     247827	FORWARD:          0	MERGED:          0	TO_CACHE:     247827
L2C WQ	ACCESS:      84416	FORWARD:          0	MERGED:          0	TO_CACHE:      84416

L2C Instructions Evicting Data 36
L2C Translations Evicting Data 1229
L2C Data Evicting Data 240620
L2C Instructions Evicting Instructions 0
L2C Translations Evicting Instructions 0
L2C Data Evicting Instructions 36
L2C Instructions Evicting Translations 0
L2C Translations Evicting Translations 1
L2C Data Evicting Translations 1254
L2C Dense regions hint from L2: 0
PSCL5 TOTAL     ACCESS:       5868  HIT:       5868  MISS:          0  HIT %:        100  MISS %:          0   MPKI: 0
PSCL5 LOAD TRANSLATION ACCESS:       5868  HIT:       5868  MISS:          0  HIT %:        100  MISS %:          0   MPKI: 0
PSCL5 PREFETCH  REQUESTED:          0  ISSUED:          0  USEFUL:          0  USELESS:          0
PSCL5 USEFUL LOAD PREFETCHES:          0 PREFETCH ISSUED TO LOWER LEVEL:          0  ACCURACY: -nan
PSCL5 TIMELY PREFETCHES:          0 LATE PREFETCHES: 0 DROPPED PREFETCHES: 0
PSCL5 PREFETCHES SAME FILL-ORIGIN LEVEL: 0 DIFFERENT FILL-ORIGIN LEVEL: 0

PSCL4 TOTAL     ACCESS:       5868  HIT:       5868  MISS:          0  HIT %:        100  MISS %:          0   MPKI: 0
PSCL4 LOAD TRANSLATION ACCESS:       5868  HIT:       5868  MISS:          0  HIT %:        100  MISS %:          0   MPKI: 0
PSCL4 PREFETCH  REQUESTED:          0  ISSUED:          0  USEFUL:          0  USELESS:          0
PSCL4 USEFUL LOAD PREFETCHES:          0 PREFETCH ISSUED TO LOWER LEVEL:          0  ACCURACY: -nan
PSCL4 TIMELY PREFETCHES:          0 LATE PREFETCHES: 0 DROPPED PREFETCHES: 0
PSCL4 PREFETCHES SAME FILL-ORIGIN LEVEL: 0 DIFFERENT FILL-ORIGIN LEVEL: 0

PSCL3 TOTAL     ACCESS:       5868  HIT:       5867  MISS:          1  HIT %:     99.983  MISS %:  0.0170416   MPKI: 2e-05
PSCL3 LOAD TRANSLATION ACCESS:       5868  HIT:       5867  MISS:          1  HIT %:     99.983  MISS %:  0.0170416   MPKI: 2e-05
PSCL3 PREFETCH  REQUESTED:          0  ISSUED:          0  USEFUL:          0  USELESS:          0
PSCL3 USEFUL LOAD PREFETCHES:          0 PREFETCH ISSUED TO LOWER LEVEL:          0  ACCURACY: -nan
PSCL3 TIMELY PREFETCHES:          0 LATE PREFETCHES: 0 DROPPED PREFETCHES: 0
PSCL3 PREFETCHES SAME FILL-ORIGIN LEVEL: 0 DIFFERENT FILL-ORIGIN LEVEL: 0

PSCL2 TOTAL     ACCESS:       5868  HIT:       5843  MISS:         25  HIT %:     99.574  MISS %:    0.42604   MPKI: 0.0005
PSCL2 LOAD TRANSLATION ACCESS:       5868  HIT:       5843  MISS:         25  HIT %:     99.574  MISS %:    0.42604   MPKI: 0.0005
PSCL2 PREFETCH  REQUESTED:          0  ISSUED:          0  USEFUL:          0  USELESS:          0
PSCL2 USEFUL LOAD PREFETCHES:          0 PREFETCH ISSUED TO LOWER LEVEL:          0  ACCURACY: -nan
PSCL2 TIMELY PREFETCHES:          0 LATE PREFETCHES: 0 DROPPED PREFETCHES: 0
PSCL2 PREFETCHES SAME FILL-ORIGIN LEVEL: 0 DIFFERENT FILL-ORIGIN LEVEL: 0

LLC TOTAL     ACCESS:     326815  HIT:      83642  MISS:     243173  HIT %:    25.5931  MISS %:    74.4069   MPKI: 4.86346
LLC LOAD      ACCESS:     157366  HIT:          0  MISS:     157366  HIT %:          0  MISS %:        100   MPKI: 3.14732
LLC RFO       ACCESS:      84580  HIT:          0  MISS:      84580  HIT %:          0  MISS %:        100   MPKI: 1.6916
LLC WRITEBACK ACCESS:      83639  HIT:      83635  MISS:          4  HIT %:    99.9952  MISS %: 0.00478246   MPKI: 8e-05
LLC LOAD TRANSLATION ACCESS:       1230  HIT:          7  MISS:       1223  HIT %:   0.569106  MISS %:    99.4309   MPKI: 0.02446
LLC PREFETCH  REQUESTED:          0  ISSUED:          0  USEFUL:          0  USELESS:          0
LLC USEFUL LOAD PREFETCHES:          0 PREFETCH ISSUED TO LOWER LEVEL:          0  ACCURACY: -nan
LLC TIMELY PREFETCHES:          0 LATE PREFETCHES: 0 DROPPED PREFETCHES: 0
LLC PREFETCHES SAME FILL-ORIGIN LEVEL: 0 DIFFERENT FILL-ORIGIN LEVEL: 0
LLC AVERAGE MISS LATENCY: 180.477 cycles
LLC RQ	ACCESS:     243175	FORWARD:          0	MERGED:          0	TO_CACHE:     243175
LLC WQ	ACCESS:      83639	FORWARD:          0	MERGED:          0	TO_CACHE:      83639

LLC Dense regions hint to LLC: 0

RAW hits: 1669652
Loads Generated: 13461691
Loads sent to L1D: 11792037
Stores Generated: 6358279
Stores sent to L1D: 6358286
Major fault: 0 Minor fault: 10630
Allocated PAGES: 10630

DRAM Statistics
 CHANNEL 0
 RQ ROW_BUFFER_HIT:      44180  ROW_BUFFER_MISS:     198989
 DBUS_CONGESTED:         28
 WQ ROW_BUFFER_HIT:      41584  ROW_BUFFER_MISS:      40049  FULL:          0

 AVG_CONGESTED_CYCLE: 6
 All warmup complete: 2
Channel 0 Bank busy for read cycles: 0
Channel 0 Bank busy for write cycles: 0
Channel 0
Rank 0
0banks busy for read cycles: 82794647
0banks busy for write cycles: 19641
1banks busy for read cycles: 12469575
1banks busy for write cycles: 3145156
2banks busy for read cycles: 3308572
2banks busy for write cycles: 93605
3banks busy for read cycles: 4278610
3banks busy for write cycles: 43507
4banks busy for read cycles: 30525
4banks busy for write cycles: 42998
5banks busy for read cycles: 2624
5banks busy for write cycles: 44066
6banks busy for read cycles: 0
6banks busy for write cycles: 60418
7banks busy for read cycles: 0
7banks busy for write cycles: 253295
8banks busy for read cycles: 0
8banks busy for write cycles: 3298140

CPU 0 Branch Prediction Accuracy: 99.9746% MPKI: 0.0287 Average ROB Occupancy at Mispredict: 160.095
Branch types
NOT_BRANCH: 44355226 88.7105%
BRANCH_DIRECT_JUMP: 379197 0.758394%
BRANCH_INDIRECT: 0 0%
BRANCH_CONDITIONAL: 3748585 7.49717%
BRANCH_DIRECT_CALL: 758387 1.51677%
BRANCH_INDIRECT_CALL: 0 0%
BRANCH_RETURN: 758386 1.51677%
BRANCH_OTHER: 0 0%

DRAM PAGES: 1048576
Allocated PAGES: 10630
