
*** ChampSim Multicore Out-of-Order Simulator ***

Warmup Instructions: 50000000
Simulation Instructions: 50000000
Number of CPUs: 1
LLC sets: 2048
LLC ways: 16
Off-chip DRAM Size: 4096 MB Channels: 1 Width: 64-bit Data Rate: 6400 MT/s
CPU 0 runs traces/SPEC-CPU2017/654.roms_s-1007B.champsimtrace.xz
.xz
CPU 0 Bimodal branch predictor
BTB has LRU replacement policy
ITLB has LRU replacement policy
DTLB has LRU replacement policy
STLB has LRU replacement policy
L1I has LRU replacement policy
L1D has LRU replacement policy
Ideal ISB Prefetching
L2C has LRU replacement policy
LLC has LRU replacement policy
Heartbeat CPU 0 instructions: 10000000 cycles: 3080860 heartbeat IPC: 3.24585 cumulative IPC: 3.24585 (Simulation time: 0 hr 0 min 35 sec) 
Heartbeat CPU 0 instructions: 20000000 cycles: 6161531 heartbeat IPC: 3.24605 cumulative IPC: 3.24595 (Simulation time: 0 hr 1 min 9 sec) 
Heartbeat CPU 0 instructions: 30000000 cycles: 9242298 heartbeat IPC: 3.24594 cumulative IPC: 3.24595 (Simulation time: 0 hr 1 min 44 sec) 
Heartbeat CPU 0 instructions: 40000000 cycles: 12323000 heartbeat IPC: 3.24601 cumulative IPC: 3.24596 (Simulation time: 0 hr 2 min 18 sec) 
Heartbeat CPU 0 instructions: 50000000 cycles: 15517644 heartbeat IPC: 3.13024 cumulative IPC: 3.22214 (Simulation time: 0 hr 2 min 55 sec) 

Warmup complete CPU 0 instructions: 50000004 cycles: 15517645 (Simulation time: 0 hr 2 min 55 sec) 

Heartbeat CPU 0 instructions: 60000000 cycles: 43967877 heartbeat IPC: 0.351491 cumulative IPC: 0.351491 (Simulation time: 0 hr 3 min 55 sec) 
Heartbeat CPU 0 instructions: 70000000 cycles: 64529839 heartbeat IPC: 0.486335 cumulative IPC: 0.408062 (Simulation time: 0 hr 4 min 44 sec) 
Heartbeat CPU 0 instructions: 80000000 cycles: 84482557 heartbeat IPC: 0.501185 cumulative IPC: 0.435004 (Simulation time: 0 hr 5 min 32 sec) 
Heartbeat CPU 0 instructions: 90000000 cycles: 104079554 heartbeat IPC: 0.510282 cumulative IPC: 0.451661 (Simulation time: 0 hr 6 min 20 sec) 
Heartbeat CPU 0 instructions: 100000000 cycles: 123670628 heartbeat IPC: 0.510437 cumulative IPC: 0.462308 (Simulation time: 0 hr 7 min 8 sec) 
Finished CPU 0 instructions: 50000001 cycles: 108153007 cumulative IPC: 0.462308 (Simulation time: 0 hr 7 min 8 sec) 

ChampSim completed all CPUs

Region of Interest Statistics

CPU 0 cumulative IPC: 0.462308 instructions: 50000001 cycles: 108153007
ITLB TOTAL     ACCESS:    8593582  HIT:    8593580  MISS:          2  HIT %:        100  MISS %: 2.32732e-05   MPKI: 4e-05
ITLB LOAD TRANSLATION ACCESS:    8593582  HIT:    8593580  MISS:          2  HIT %:        100  MISS %: 2.32732e-05   MPKI: 4e-05
ITLB PREFETCH  REQUESTED:          0  ISSUED:          0  USEFUL:          0  USELESS:          0
ITLB USEFUL LOAD PREFETCHES:          0 PREFETCH ISSUED TO LOWER LEVEL:          0  ACCURACY: -nan
ITLB TIMELY PREFETCHES:          0 LATE PREFETCHES: 0 DROPPED PREFETCHES: 0
ITLB PREFETCHES SAME FILL-ORIGIN LEVEL: 0 DIFFERENT FILL-ORIGIN LEVEL: 0
ITLB AVERAGE MISS LATENCY: 325.5 cycles
ITLB RQ	ACCESS:   10797397	FORWARD:          0	MERGED:    2203815	TO_CACHE:    8593582

DTLB TOTAL     ACCESS:   13436678  HIT:   13430797  MISS:       5881  HIT %:    99.9562  MISS %:  0.0437683   MPKI: 0.11762
DTLB LOAD TRANSLATION ACCESS:   13436678  HIT:   13430797  MISS:       5881  HIT %:    99.9562  MISS %:  0.0437683   MPKI: 0.11762
DTLB PREFETCH  REQUESTED:          0  ISSUED:          0  USEFUL:          0  USELESS:          0
DTLB USEFUL LOAD PREFETCHES:          0 PREFETCH ISSUED TO LOWER LEVEL:          0  ACCURACY: -nan
DTLB TIMELY PREFETCHES:          0 LATE PREFETCHES: 0 DROPPED PREFETCHES: 0
DTLB PREFETCHES SAME FILL-ORIGIN LEVEL: 0 DIFFERENT FILL-ORIGIN LEVEL: 0
DTLB AVERAGE MISS LATENCY: 154.602 cycles
DTLB RQ	ACCESS:   15088301	FORWARD:          0	MERGED:    1646603	TO_CACHE:   13441698

STLB TOTAL     ACCESS:       5883  HIT:         15  MISS:       5868  HIT %:   0.254972  MISS %:     99.745   MPKI: 0.11736
STLB LOAD TRANSLATION ACCESS:       5883  HIT:         15  MISS:       5868  HIT %:   0.254972  MISS %:     99.745   MPKI: 0.11736
STLB PREFETCH  REQUESTED:          0  ISSUED:          0  USEFUL:          0  USELESS:          0
STLB USEFUL LOAD PREFETCHES:          0 PREFETCH ISSUED TO LOWER LEVEL:          0  ACCURACY: -nan
STLB TIMELY PREFETCHES:          0 LATE PREFETCHES: 0 DROPPED PREFETCHES: 0
STLB PREFETCHES SAME FILL-ORIGIN LEVEL: 0 DIFFERENT FILL-ORIGIN LEVEL: 0
STLB AVERAGE MISS LATENCY: 145.683 cycles
STLB RQ	ACCESS:       5883	FORWARD:          0	MERGED:          0	TO_CACHE:       5883

STLB Hit, L1D data hit: 0
STLB Hit, L2C data hit: 0
STLB Hit, LLC data hit: 0
STLB Hit, LLC data miss: 0
STLB STLB hints to L2: 0
L1D TOTAL     ACCESS:   14738942  HIT:   14497028  MISS:     241914  HIT %:    98.3587  MISS %:    1.64133   MPKI: 4.83828
L1D LOAD      ACCESS:    9002196  HIT:    8844862  MISS:     157334  HIT %:    98.2523  MISS %:    1.74773   MPKI: 3.14668
L1D RFO       ACCESS:    5736746  HIT:    5652166  MISS:      84580  HIT %:    98.5256  MISS %:    1.47435   MPKI: 1.6916
L1D PREFETCH  REQUESTED:          0  ISSUED:          0  USEFUL:          0  USELESS:          0
L1D USEFUL LOAD PREFETCHES:          0 PREFETCH ISSUED TO LOWER LEVEL:          0  ACCURACY: -nan
L1D TIMELY PREFETCHES:          0 LATE PREFETCHES: 0 DROPPED PREFETCHES: 0
L1D PREFETCHES SAME FILL-ORIGIN LEVEL: 0 DIFFERENT FILL-ORIGIN LEVEL: 0
L1D AVERAGE MISS LATENCY: 215.33 cycles
L1D RQ	ACCESS:   11795284	FORWARD:          0	MERGED:    2631380	TO_CACHE:    9109205
L1D WQ	ACCESS:    6358286	FORWARD:      54699	MERGED:     379190	TO_CACHE:    5979096

L1D UNIQUE REGIONS ACCESSED: 0
L1D REGIONS CONFLICTS: 0
L1D Cross Page Prefetch Requests: 0
L1D Same Page Prefetch Requests: 0
L1D ROI Sum of L1D PQ occupancy: 0
L1D PREFETCHES PUSHED FROM L2C: 0
L1I TOTAL     ACCESS:   10797387  HIT:   10797351  MISS:         36  HIT %:    99.9997  MISS %: 0.000333414   MPKI: 0.00072
L1I LOAD      ACCESS:   10797387  HIT:   10797351  MISS:         36  HIT %:    99.9997  MISS %: 0.000333414   MPKI: 0.00072
L1I PREFETCH  REQUESTED:          0  ISSUED:          0  USEFUL:          0  USELESS:          0
L1I USEFUL LOAD PREFETCHES:          0 PREFETCH ISSUED TO LOWER LEVEL:          0  ACCURACY: -nan
L1I TIMELY PREFETCHES:          0 LATE PREFETCHES: 0 DROPPED PREFETCHES: 0
L1I PREFETCHES SAME FILL-ORIGIN LEVEL: 0 DIFFERENT FILL-ORIGIN LEVEL: 0
L1I AVERAGE MISS LATENCY: 227.889 cycles
L1I RQ	ACCESS:   14356925	FORWARD:          0	MERGED:    3559528	TO_CACHE:   10797397

BTB TOTAL     ACCESS:    3368722  HIT:    2989495  MISS:     379227  HIT %:    88.7427  MISS %:    11.2573   MPKI: 7.58454
BTB BRANCH_DIRECT_JUMP	ACCESS:     379197  HIT:     379193  MISS:          4
BTB BRANCH_INDIRECT	ACCESS:          0  HIT:          0  MISS:          0
BTB BRANCH_CONDITIONAL	ACCESS:    1472752  HIT:    1472732  MISS:         20
BTB BRANCH_DIRECT_CALL	ACCESS:     758387  HIT:     758379  MISS:          8
BTB BRANCH_INDIRECT_CALL	ACCESS:          0  HIT:          0  MISS:          0
BTB BRANCH_RETURN	ACCESS:     758386  HIT:     379191  MISS:     379195
BTB BRANCH_OTHER ACCESS:          0  HIT:          0  MISS:          0

L2C TOTAL     ACCESS:     350832  HIT:     107645  MISS:     243187  HIT %:    30.6828  MISS %:    69.3172   MPKI: 4.86374
L2C LOAD      ACCESS:     157370  HIT:      18579  MISS:     138791  HIT %:    11.8059  MISS %:    88.1941   MPKI: 2.77582
L2C DATA LOAD MPKI: 2.7751
L2C INSTRUCTION LOAD MPKI: 0.00072
L2C RFO       ACCESS:      84580  HIT:          0  MISS:      84580  HIT %:          0  MISS %:        100   MPKI: 1.6916
L2C PREFETCH  ACCESS:      18588  HIT:          6  MISS:      18582  HIT %:  0.0322789  MISS %:    99.9677   MPKI: 0.37164
AGUS PREFETCH L1 MISS: 0
L2C DATA PREFETCH MPKI: 0.37164
L2C INSTRUCTION PREFETCH MPKI: 0
L2C WRITEBACK ACCESS:      84416  HIT:      84412  MISS:          4  HIT %:    99.9953  MISS %: 0.00473844   MPKI: 8e-05
L2C LOAD TRANSLATION ACCESS:       5878  HIT:       4648  MISS:       1230  HIT %:    79.0745  MISS %:    20.9255   MPKI: 0.0246
L2C PREFETCH  REQUESTED:      18631  ISSUED:      18631  USEFUL:      18575  USELESS:          0
L2C USEFUL LOAD PREFETCHES:      18575 PREFETCH ISSUED TO LOWER LEVEL:      18584  ACCURACY: 99.9516
L2C TIMELY PREFETCHES:      18575 LATE PREFETCHES: 2 DROPPED PREFETCHES: 0
L2C PREFETCHES SAME FILL-ORIGIN LEVEL: 18584 DIFFERENT FILL-ORIGIN LEVEL: 0
L2C AVERAGE MISS LATENCY: 211.497 cycles
L2C RQ	ACCESS:     247827	FORWARD:          0	MERGED:          0	TO_CACHE:     247827
L2C WQ	ACCESS:      84416	FORWARD:          0	MERGED:          0	TO_CACHE:      84416
L2C PQ	ACCESS:      18631	FORWARD:          0	MERGED:         28	TO_CACHE:      18603

L2C Instructions Evicting Data 36
L2C Translations Evicting Data 1229
L2C Data Evicting Data 240627
L2C Instructions Evicting Instructions 0
L2C Translations Evicting Instructions 0
L2C Data Evicting Instructions 36
L2C Instructions Evicting Translations 0
L2C Translations Evicting Translations 1
L2C Data Evicting Translations 1254
L2C Dense regions hint from L2: 0
PSCL5 TOTAL     ACCESS:       5868  HIT:       5868  MISS:          0  HIT %:        100  MISS %:          0   MPKI: 0
PSCL5 LOAD TRANSLATION ACCESS:       5868  HIT:       5868  MISS:          0  HIT %:        100  MISS %:          0   MPKI: 0
PSCL5 PREFETCH  REQUESTED:          0  ISSUED:          0  USEFUL:          0  USELESS:          0
PSCL5 USEFUL LOAD PREFETCHES:          0 PREFETCH ISSUED TO LOWER LEVEL:          0  ACCURACY: -nan
PSCL5 TIMELY PREFETCHES:          0 LATE PREFETCHES: 0 DROPPED PREFETCHES: 0
PSCL5 PREFETCHES SAME FILL-ORIGIN LEVEL: 0 DIFFERENT FILL-ORIGIN LEVEL: 0

PSCL4 TOTAL     ACCESS:       5868  HIT:       5868  MISS:          0  HIT %:        100  MISS %:          0   MPKI: 0
PSCL4 LOAD TRANSLATION ACCESS:       5868  HIT:       5868  MISS:          0  HIT %:        100  MISS %:          0   MPKI: 0
PSCL4 PREFETCH  REQUESTED:          0  ISSUED:          0  USEFUL:          0  USELESS:          0
PSCL4 USEFUL LOAD PREFETCHES:          0 PREFETCH ISSUED TO LOWER LEVEL:          0  ACCURACY: -nan
PSCL4 TIMELY PREFETCHES:          0 LATE PREFETCHES: 0 DROPPED PREFETCHES: 0
PSCL4 PREFETCHES SAME FILL-ORIGIN LEVEL: 0 DIFFERENT FILL-ORIGIN LEVEL: 0

PSCL3 TOTAL     ACCESS:       5868  HIT:       5867  MISS:          1  HIT %:     99.983  MISS %:  0.0170416   MPKI: 2e-05
PSCL3 LOAD TRANSLATION ACCESS:       5868  HIT:       5867  MISS:          1  HIT %:     99.983  MISS %:  0.0170416   MPKI: 2e-05
PSCL3 PREFETCH  REQUESTED:          0  ISSUED:          0  USEFUL:          0  USELESS:          0
PSCL3 USEFUL LOAD PREFETCHES:          0 PREFETCH ISSUED TO LOWER LEVEL:          0  ACCURACY: -nan
PSCL3 TIMELY PREFETCHES:          0 LATE PREFETCHES: 0 DROPPED PREFETCHES: 0
PSCL3 PREFETCHES SAME FILL-ORIGIN LEVEL: 0 DIFFERENT FILL-ORIGIN LEVEL: 0

PSCL2 TOTAL     ACCESS:       5868  HIT:       5843  MISS:         25  HIT %:     99.574  MISS %:    0.42604   MPKI: 0.0005
PSCL2 LOAD TRANSLATION ACCESS:       5868  HIT:       5843  MISS:         25  HIT %:     99.574  MISS %:    0.42604   MPKI: 0.0005
PSCL2 PREFETCH  REQUESTED:          0  ISSUED:          0  USEFUL:          0  USELESS:          0
PSCL2 USEFUL LOAD PREFETCHES:          0 PREFETCH ISSUED TO LOWER LEVEL:          0  ACCURACY: -nan
PSCL2 TIMELY PREFETCHES:          0 LATE PREFETCHES: 0 DROPPED PREFETCHES: 0
PSCL2 PREFETCHES SAME FILL-ORIGIN LEVEL: 0 DIFFERENT FILL-ORIGIN LEVEL: 0

LLC TOTAL     ACCESS:     326823  HIT:      83643  MISS:     243180  HIT %:    25.5928  MISS %:    74.4072   MPKI: 4.8636
LLC LOAD      ACCESS:     138789  HIT:          0  MISS:     138789  HIT %:          0  MISS %:        100   MPKI: 2.77578
LLC RFO       ACCESS:      84580  HIT:          0  MISS:      84580  HIT %:          0  MISS %:        100   MPKI: 1.6916
LLC PREFETCH  ACCESS:      18584  HIT:          0  MISS:      18584  HIT %:          0  MISS %:        100   MPKI: 0.37168
AGUS PREFETCH L1 MISS: 0
LLC WRITEBACK ACCESS:      83640  HIT:      83636  MISS:          4  HIT %:    99.9952  MISS %:  0.0047824   MPKI: 8e-05
LLC LOAD TRANSLATION ACCESS:       1230  HIT:          7  MISS:       1223  HIT %:   0.569106  MISS %:    99.4309   MPKI: 0.02446
LLC PREFETCH  REQUESTED:          0  ISSUED:          0  USEFUL:          0  USELESS:       2936
LLC USEFUL LOAD PREFETCHES:          0 PREFETCH ISSUED TO LOWER LEVEL:      18584  ACCURACY: 0
LLC TIMELY PREFETCHES:          0 LATE PREFETCHES: 0 DROPPED PREFETCHES: 0
LLC PREFETCHES SAME FILL-ORIGIN LEVEL: 0 DIFFERENT FILL-ORIGIN LEVEL: 0
LLC AVERAGE MISS LATENCY: 181.085 cycles
LLC RQ	ACCESS:     224598	FORWARD:          0	MERGED:          0	TO_CACHE:     224598
LLC WQ	ACCESS:      83640	FORWARD:          0	MERGED:          0	TO_CACHE:      83640
LLC PQ	ACCESS:      18584	FORWARD:          0	MERGED:          0	TO_CACHE:      18584

LLC Dense regions hint to LLC: 0

RAW hits: 1666405
Loads Generated: 13461691
Loads sent to L1D: 11795284
Stores Generated: 6358279
Stores sent to L1D: 6358286
Major fault: 0 Minor fault: 10630
Allocated PAGES: 10630
Prefetcher final stats
Training Unit Size: 84
Addr table size: 316059 316059


Triggers: 318479
No Prediction: 316144 99.2668
Stream end: 20
No translation: 1021 0.320586
Predictions: 18631 5.84999


Stream divergence: 2 0.000627985
Stream divergence -- new stream: 0

DRAM Statistics
 CHANNEL 0
 RQ ROW_BUFFER_HIT:      44569  ROW_BUFFER_MISS:     198607
 DBUS_CONGESTED:         27
 WQ ROW_BUFFER_HIT:      40870  ROW_BUFFER_MISS:      40763  FULL:          0

 AVG_CONGESTED_CYCLE: 6
 All warmup complete: 2
Channel 0 Bank busy for read cycles: 0
Channel 0 Bank busy for write cycles: 0
Channel 0
Rank 0
0banks busy for read cycles: 83464229
0banks busy for write cycles: 14646
1banks busy for read cycles: 10618100
1banks busy for write cycles: 2150780
2banks busy for read cycles: 3322233
2banks busy for write cycles: 97224
3banks busy for read cycles: 4303270
3banks busy for write cycles: 74591
4banks busy for read cycles: 53193
4banks busy for write cycles: 69219
5banks busy for read cycles: 24217
5banks busy for write cycles: 68257
6banks busy for read cycles: 20841
6banks busy for write cycles: 80363
7banks busy for read cycles: 22768
7banks busy for write cycles: 272531
8banks busy for read cycles: 153657
8banks busy for write cycles: 3342889

CPU 0 Branch Prediction Accuracy: 99.9746% MPKI: 0.0287 Average ROB Occupancy at Mispredict: 144.115
Branch types
NOT_BRANCH: 44355226 88.7105%
BRANCH_DIRECT_JUMP: 379197 0.758394%
BRANCH_INDIRECT: 0 0%
BRANCH_CONDITIONAL: 3748585 7.49717%
BRANCH_DIRECT_CALL: 758387 1.51677%
BRANCH_INDIRECT_CALL: 0 0%
BRANCH_RETURN: 758386 1.51677%
BRANCH_OTHER: 0 0%

DRAM PAGES: 1048576
Allocated PAGES: 10630
