
*** ChampSim Multicore Out-of-Order Simulator ***

Warmup Instructions: 50000000
Simulation Instructions: 50000000
Number of CPUs: 1
LLC sets: 2048
LLC ways: 16
Off-chip DRAM Size: 4096 MB Channels: 1 Width: 64-bit Data Rate: 6400 MT/s
CPU 0 runs ./traces/SPEC-CPU2017/623.xalancbmk_s-10B.champsimtrace.xz
.xz
CPU 0 Bimodal branch predictor
BTB has LRU replacement policy
ITLB has LRU replacement policy
DTLB has LRU replacement policy
STLB has LRU replacement policy
L1I has LRU replacement policy
L1D has LRU replacement policy
L2C has LRU replacement policy
LLC has LRU replacement policy
Heartbeat CPU 0 instructions: 10000001 cycles: 3256406 heartbeat IPC: 3.07087 cumulative IPC: 3.07087 (Simulation time: 0 hr 0 min 58 sec) 
Heartbeat CPU 0 instructions: 20000000 cycles: 6524441 heartbeat IPC: 3.05994 cumulative IPC: 3.0654 (Simulation time: 0 hr 1 min 57 sec) 
Heartbeat CPU 0 instructions: 30000001 cycles: 9805716 heartbeat IPC: 3.0476 cumulative IPC: 3.05944 (Simulation time: 0 hr 2 min 56 sec) 
Heartbeat CPU 0 instructions: 40000000 cycles: 13078299 heartbeat IPC: 3.05569 cumulative IPC: 3.0585 (Simulation time: 0 hr 3 min 54 sec) 
Heartbeat CPU 0 instructions: 50000000 cycles: 16402613 heartbeat IPC: 3.00814 cumulative IPC: 3.04829 (Simulation time: 0 hr 4 min 54 sec) 

Warmup complete CPU 0 instructions: 50000004 cycles: 16402614 (Simulation time: 0 hr 4 min 54 sec) 

Heartbeat CPU 0 instructions: 60000000 cycles: 58863816 heartbeat IPC: 0.235509 cumulative IPC: 0.235509 (Simulation time: 0 hr 6 min 24 sec) 
Heartbeat CPU 0 instructions: 70000000 cycles: 100759823 heartbeat IPC: 0.238686 cumulative IPC: 0.237087 (Simulation time: 0 hr 7 min 56 sec) 
Heartbeat CPU 0 instructions: 80000000 cycles: 143679615 heartbeat IPC: 0.232993 cumulative IPC: 0.235706 (Simulation time: 0 hr 9 min 27 sec) 
Heartbeat CPU 0 instructions: 90000000 cycles: 183266624 heartbeat IPC: 0.252608 cumulative IPC: 0.239716 (Simulation time: 0 hr 10 min 56 sec) 
Heartbeat CPU 0 instructions: 100000000 cycles: 225817375 heartbeat IPC: 0.235013 cumulative IPC: 0.238761 (Simulation time: 0 hr 12 min 28 sec) 
Finished CPU 0 instructions: 50000003 cycles: 209414795 cumulative IPC: 0.238761 (Simulation time: 0 hr 12 min 28 sec) 

ChampSim completed all CPUs

Region of Interest Statistics

CPU 0 cumulative IPC: 0.238761 instructions: 50000003 cycles: 209414795
ITLB TOTAL     ACCESS:    7900749  HIT:    7866840  MISS:      33909  HIT %:    99.5708  MISS %:   0.429187   MPKI: 0.67818
ITLB LOAD TRANSLATION ACCESS:    7900749  HIT:    7866840  MISS:      33909  HIT %:    99.5708  MISS %:   0.429187   MPKI: 0.67818
ITLB PREFETCH  REQUESTED:          0  ISSUED:          0  USEFUL:          0  USELESS:          0
ITLB USEFUL LOAD PREFETCHES:          0 PREFETCH ISSUED TO LOWER LEVEL:          0  ACCURACY: -nan
ITLB TIMELY PREFETCHES:          0 LATE PREFETCHES: 0 DROPPED PREFETCHES: 0
ITLB PREFETCHES SAME FILL-ORIGIN LEVEL: 0 DIFFERENT FILL-ORIGIN LEVEL: 0
ITLB AVERAGE MISS LATENCY: 18.0368 cycles
ITLB RQ	ACCESS:    9060905	FORWARD:          0	MERGED:    1151081	TO_CACHE:    7909824

DTLB TOTAL     ACCESS:   10262591  HIT:    9925272  MISS:     337319  HIT %:    96.7131  MISS %:    3.28688   MPKI: 6.74638
DTLB LOAD TRANSLATION ACCESS:   10262591  HIT:    9925272  MISS:     337319  HIT %:    96.7131  MISS %:    3.28688   MPKI: 6.74638
DTLB PREFETCH  REQUESTED:          0  ISSUED:          0  USEFUL:          0  USELESS:          0
DTLB USEFUL LOAD PREFETCHES:          0 PREFETCH ISSUED TO LOWER LEVEL:          0  ACCURACY: -nan
DTLB TIMELY PREFETCHES:          0 LATE PREFETCHES: 0 DROPPED PREFETCHES: 0
DTLB PREFETCHES SAME FILL-ORIGIN LEVEL: 0 DIFFERENT FILL-ORIGIN LEVEL: 0
DTLB AVERAGE MISS LATENCY: 67.6401 cycles
DTLB RQ	ACCESS:   11375473	FORWARD:          0	MERGED:    1065793	TO_CACHE:   10309680

STLB TOTAL     ACCESS:     371228  HIT:     116651  MISS:     254577  HIT %:     31.423  MISS %:     68.577   MPKI: 5.09154
STLB LOAD TRANSLATION ACCESS:     371228  HIT:     116651  MISS:     254577  HIT %:     31.423  MISS %:     68.577   MPKI: 5.09154
STLB PREFETCH  REQUESTED:          0  ISSUED:          0  USEFUL:          0  USELESS:          0
STLB USEFUL LOAD PREFETCHES:          0 PREFETCH ISSUED TO LOWER LEVEL:          0  ACCURACY: -nan
STLB TIMELY PREFETCHES:          0 LATE PREFETCHES: 0 DROPPED PREFETCHES: 0
STLB PREFETCHES SAME FILL-ORIGIN LEVEL: 0 DIFFERENT FILL-ORIGIN LEVEL: 0
STLB AVERAGE MISS LATENCY: 78.8585 cycles
STLB RQ	ACCESS:     371228	FORWARD:          0	MERGED:          0	TO_CACHE:     371228

STLB Hit, L1D data hit: 0
STLB Hit, L2C data hit: 0
STLB Hit, LLC data hit: 0
STLB Hit, LLC data miss: 0
STLB STLB hints to L2: 0
L1D TOTAL     ACCESS:   11237487  HIT:    9882135  MISS:    1355352  HIT %:     87.939  MISS %:     12.061   MPKI: 27.107
L1D LOAD      ACCESS:    8920587  HIT:    7585323  MISS:    1335264  HIT %:    85.0317  MISS %:    14.9683   MPKI: 26.7053
L1D RFO       ACCESS:    2316900  HIT:    2296812  MISS:      20088  HIT %:     99.133  MISS %:   0.867021   MPKI: 0.40176
L1D PREFETCH  REQUESTED:          0  ISSUED:          0  USEFUL:          0  USELESS:          0
L1D USEFUL LOAD PREFETCHES:          0 PREFETCH ISSUED TO LOWER LEVEL:          0  ACCURACY: -nan
L1D TIMELY PREFETCHES:          0 LATE PREFETCHES: 0 DROPPED PREFETCHES: 0
L1D PREFETCHES SAME FILL-ORIGIN LEVEL: 0 DIFFERENT FILL-ORIGIN LEVEL: 0
L1D AVERAGE MISS LATENCY: 136.239 cycles
L1D RQ	ACCESS:   14678897	FORWARD:          0	MERGED:    5626655	TO_CACHE:    8992499
L1D WQ	ACCESS:    2425925	FORWARD:      59743	MERGED:      42951	TO_CACHE:    2382974

L1D UNIQUE REGIONS ACCESSED: 0
L1D REGIONS CONFLICTS: 0
L1D Cross Page Prefetch Requests: 0
L1D Same Page Prefetch Requests: 0
L1D ROI Sum of L1D PQ occupancy: 0
L1D PREFETCHES PUSHED FROM L2C: 0
L1I TOTAL     ACCESS:    9009445  HIT:    8833398  MISS:     176047  HIT %:     98.046  MISS %:    1.95403   MPKI: 3.52094
L1I LOAD      ACCESS:    9009445  HIT:    8833398  MISS:     176047  HIT %:     98.046  MISS %:    1.95403   MPKI: 3.52094
L1I PREFETCH  REQUESTED:          0  ISSUED:          0  USEFUL:          0  USELESS:          0
L1I USEFUL LOAD PREFETCHES:          0 PREFETCH ISSUED TO LOWER LEVEL:          0  ACCURACY: -nan
L1I TIMELY PREFETCHES:          0 LATE PREFETCHES: 0 DROPPED PREFETCHES: 0
L1I PREFETCHES SAME FILL-ORIGIN LEVEL: 0 DIFFERENT FILL-ORIGIN LEVEL: 0
L1I AVERAGE MISS LATENCY: 38.1163 cycles
L1I RQ	ACCESS:   15173617	FORWARD:          0	MERGED:    6112712	TO_CACHE:    9060905

BTB TOTAL     ACCESS:    8240388  HIT:    8162326  MISS:      78062  HIT %:    99.0527  MISS %:    0.94731   MPKI: 1.56124
BTB BRANCH_DIRECT_JUMP	ACCESS:     125745  HIT:     125105  MISS:        640
BTB BRANCH_INDIRECT	ACCESS:      22046  HIT:       8847  MISS:      13199
BTB BRANCH_CONDITIONAL	ACCESS:    6916737  HIT:    6913889  MISS:       2848
BTB BRANCH_DIRECT_CALL	ACCESS:     323606  HIT:     322531  MISS:       1075
BTB BRANCH_INDIRECT_CALL	ACCESS:     264324  HIT:     261288  MISS:       3036
BTB BRANCH_RETURN	ACCESS:     587930  HIT:     530666  MISS:      57264
BTB BRANCH_OTHER ACCESS:          0  HIT:          0  MISS:          0

L2C TOTAL     ACCESS:    1824835  HIT:     496166  MISS:    1328669  HIT %:    27.1896  MISS %:    72.8104   MPKI: 26.5734
L2C LOAD      ACCESS:    1511311  HIT:     257069  MISS:    1254242  HIT %:    17.0097  MISS %:    82.9903   MPKI: 25.0848
L2C DATA LOAD MPKI: 24.3991
L2C INSTRUCTION LOAD MPKI: 0.68576
L2C RFO       ACCESS:      20085  HIT:       6443  MISS:      13642  HIT %:    32.0787  MISS %:    67.9213   MPKI: 0.27284
L2C WRITEBACK ACCESS:      37681  HIT:      37511  MISS:        170  HIT %:    99.5488  MISS %:   0.451156   MPKI: 0.0034
L2C LOAD TRANSLATION ACCESS:     255758  HIT:     195143  MISS:      60615  HIT %:    76.2999  MISS %:    23.7001   MPKI: 1.2123
L2C PREFETCH  REQUESTED:          0  ISSUED:          0  USEFUL:          0  USELESS:          0
L2C USEFUL LOAD PREFETCHES:          0 PREFETCH ISSUED TO LOWER LEVEL:          0  ACCURACY: -nan
L2C TIMELY PREFETCHES:          0 LATE PREFETCHES: 0 DROPPED PREFETCHES: 0
L2C PREFETCHES SAME FILL-ORIGIN LEVEL: 0 DIFFERENT FILL-ORIGIN LEVEL: 0
L2C AVERAGE MISS LATENCY: 135.624 cycles
L2C RQ	ACCESS:    1787157	FORWARD:          0	MERGED:          0	TO_CACHE:    1787154
L2C WQ	ACCESS:      37681	FORWARD:          3	MERGED:          0	TO_CACHE:      37681

L2C Instructions Evicting Data 32409
L2C Translations Evicting Data 56432
L2C Data Evicting Data 1144734
L2C Instructions Evicting Instructions 878
L2C Translations Evicting Instructions 1084
L2C Data Evicting Instructions 32346
L2C Instructions Evicting Translations 1001
L2C Translations Evicting Translations 3099
L2C Data Evicting Translations 56516
L2C Dense regions hint from L2: 0
PSCL5 TOTAL     ACCESS:     254577  HIT:     254577  MISS:          0  HIT %:        100  MISS %:          0   MPKI: 0
PSCL5 LOAD TRANSLATION ACCESS:     254577  HIT:     254577  MISS:          0  HIT %:        100  MISS %:          0   MPKI: 0
PSCL5 PREFETCH  REQUESTED:          0  ISSUED:          0  USEFUL:          0  USELESS:          0
PSCL5 USEFUL LOAD PREFETCHES:          0 PREFETCH ISSUED TO LOWER LEVEL:          0  ACCURACY: -nan
PSCL5 TIMELY PREFETCHES:          0 LATE PREFETCHES: 0 DROPPED PREFETCHES: 0
PSCL5 PREFETCHES SAME FILL-ORIGIN LEVEL: 0 DIFFERENT FILL-ORIGIN LEVEL: 0

PSCL4 TOTAL     ACCESS:     254577  HIT:     254577  MISS:          0  HIT %:        100  MISS %:          0   MPKI: 0
PSCL4 LOAD TRANSLATION ACCESS:     254577  HIT:     254577  MISS:          0  HIT %:        100  MISS %:          0   MPKI: 0
PSCL4 PREFETCH  REQUESTED:          0  ISSUED:          0  USEFUL:          0  USELESS:          0
PSCL4 USEFUL LOAD PREFETCHES:          0 PREFETCH ISSUED TO LOWER LEVEL:          0  ACCURACY: -nan
PSCL4 TIMELY PREFETCHES:          0 LATE PREFETCHES: 0 DROPPED PREFETCHES: 0
PSCL4 PREFETCHES SAME FILL-ORIGIN LEVEL: 0 DIFFERENT FILL-ORIGIN LEVEL: 0

PSCL3 TOTAL     ACCESS:     254577  HIT:     254577  MISS:          0  HIT %:        100  MISS %:          0   MPKI: 0
PSCL3 LOAD TRANSLATION ACCESS:     254577  HIT:     254577  MISS:          0  HIT %:        100  MISS %:          0   MPKI: 0
PSCL3 PREFETCH  REQUESTED:          0  ISSUED:          0  USEFUL:          0  USELESS:          0
PSCL3 USEFUL LOAD PREFETCHES:          0 PREFETCH ISSUED TO LOWER LEVEL:          0  ACCURACY: -nan
PSCL3 TIMELY PREFETCHES:          0 LATE PREFETCHES: 0 DROPPED PREFETCHES: 0
PSCL3 PREFETCHES SAME FILL-ORIGIN LEVEL: 0 DIFFERENT FILL-ORIGIN LEVEL: 0

PSCL2 TOTAL     ACCESS:     254577  HIT:     253396  MISS:       1181  HIT %:    99.5361  MISS %:   0.463907   MPKI: 0.02362
PSCL2 LOAD TRANSLATION ACCESS:     254577  HIT:     253396  MISS:       1181  HIT %:    99.5361  MISS %:   0.463907   MPKI: 0.02362
PSCL2 PREFETCH  REQUESTED:          0  ISSUED:          0  USEFUL:          0  USELESS:          0
PSCL2 USEFUL LOAD PREFETCHES:          0 PREFETCH ISSUED TO LOWER LEVEL:          0  ACCURACY: -nan
PSCL2 TIMELY PREFETCHES:          0 LATE PREFETCHES: 0 DROPPED PREFETCHES: 0
PSCL2 PREFETCHES SAME FILL-ORIGIN LEVEL: 0 DIFFERENT FILL-ORIGIN LEVEL: 0

LLC TOTAL     ACCESS:    1350093  HIT:      99574  MISS:    1250519  HIT %:    7.37534  MISS %:    92.6247   MPKI: 25.0104
LLC LOAD      ACCESS:    1254242  HIT:      74177  MISS:    1180065  HIT %:    5.91409  MISS %:    94.0859   MPKI: 23.6013
LLC RFO       ACCESS:      13642  HIT:       1423  MISS:      12219  HIT %:     10.431  MISS %:     89.569   MPKI: 0.24438
LLC WRITEBACK ACCESS:      21594  HIT:      21484  MISS:        110  HIT %:    99.4906  MISS %:   0.509401   MPKI: 0.0022
LLC LOAD TRANSLATION ACCESS:      60615  HIT:       2490  MISS:      58125  HIT %:    4.10789  MISS %:    95.8921   MPKI: 1.1625
LLC PREFETCH  REQUESTED:          0  ISSUED:          0  USEFUL:          0  USELESS:          0
LLC USEFUL LOAD PREFETCHES:          0 PREFETCH ISSUED TO LOWER LEVEL:          0  ACCURACY: -nan
LLC TIMELY PREFETCHES:          0 LATE PREFETCHES: 0 DROPPED PREFETCHES: 0
LLC PREFETCHES SAME FILL-ORIGIN LEVEL: 0 DIFFERENT FILL-ORIGIN LEVEL: 0
LLC AVERAGE MISS LATENCY: 112.228 cycles
LLC RQ	ACCESS:    1328499	FORWARD:          0	MERGED:          0	TO_CACHE:    1328499
LLC WQ	ACCESS:      21594	FORWARD:          0	MERGED:          0	TO_CACHE:      21594

LLC Dense regions hint to LLC: 0

RAW hits: 63164
Loads Generated: 14742061
Loads sent to L1D: 14678897
Stores Generated: 2425922
Stores sent to L1D: 2425925
Major fault: 0 Minor fault: 11043
Allocated PAGES: 11043

DRAM Statistics
 CHANNEL 0
 RQ ROW_BUFFER_HIT:     766565  ROW_BUFFER_MISS:     483844
 DBUS_CONGESTED:        317
 WQ ROW_BUFFER_HIT:       1677  ROW_BUFFER_MISS:      16431  FULL:          0

 AVG_CONGESTED_CYCLE: 3
 All warmup complete: 2
Channel 0 Bank busy for read cycles: 0
Channel 0 Bank busy for write cycles: 0
Channel 0
Rank 0
0banks busy for read cycles: 128987917
0banks busy for write cycles: 15580
1banks busy for read cycles: 52706522
1banks busy for write cycles: 3378559
2banks busy for read cycles: 15510540
2banks busy for write cycles: 381525
3banks busy for read cycles: 6589818
3banks busy for write cycles: 51166
4banks busy for read cycles: 1630466
4banks busy for write cycles: 5305
5banks busy for read cycles: 107765
5banks busy for write cycles: 16
6banks busy for read cycles: 12193
6banks busy for write cycles: 131
7banks busy for read cycles: 23011
7banks busy for write cycles: 0
8banks busy for read cycles: 14282
8banks busy for write cycles: 0

CPU 0 Branch Prediction Accuracy: 94.9771% MPKI: 13.0224 Average ROB Occupancy at Mispredict: 41.5119
Branch types
NOT_BRANCH: 37037111 74.0742%
BRANCH_DIRECT_JUMP: 125745 0.25149%
BRANCH_INDIRECT: 22046 0.044092%
BRANCH_CONDITIONAL: 11639280 23.2786%
BRANCH_DIRECT_CALL: 323606 0.647212%
BRANCH_INDIRECT_CALL: 264324 0.528648%
BRANCH_RETURN: 587930 1.17586%
BRANCH_OTHER: 0 0%

DRAM PAGES: 1048576
Allocated PAGES: 11043
