
*** ChampSim Multicore Out-of-Order Simulator ***

Warmup Instructions: 50000000
Simulation Instructions: 100000000
Number of CPUs: 1
LLC sets: 2048
LLC ways: 16
Off-chip DRAM Size: 4096 MB Channels: 1 Width: 64-bit Data Rate: 6400 MT/s
CPU 0 runs ./traces/GAP/bc-5.trace.gz
.gz
CPU 0 Bimodal branch predictor
BTB has LRU replacement policy
ITLB has LRU replacement policy
DTLB has LRU replacement policy
STLB has LRU replacement policy
L1I has LRU replacement policy
L1D has LRU replacement policy
L2C has LRU replacement policy
LLC has LRU replacement policy
Heartbeat CPU 0 instructions: 10000002 cycles: 3702794 heartbeat IPC: 2.70066 cumulative IPC: 2.70066 (Simulation time: 0 hr 2 min 50 sec) 
Heartbeat CPU 0 instructions: 20000000 cycles: 6945190 heartbeat IPC: 3.08414 cumulative IPC: 2.87969 (Simulation time: 0 hr 6 min 2 sec) 
Heartbeat CPU 0 instructions: 30000001 cycles: 10184842 heartbeat IPC: 3.08675 cumulative IPC: 2.94555 (Simulation time: 0 hr 9 min 17 sec) 
Heartbeat CPU 0 instructions: 40000000 cycles: 13411958 heartbeat IPC: 3.09874 cumulative IPC: 2.98241 (Simulation time: 0 hr 12 min 30 sec) 
Heartbeat CPU 0 instructions: 50000002 cycles: 16656266 heartbeat IPC: 3.08232 cumulative IPC: 3.00187 (Simulation time: 0 hr 15 min 47 sec) 

Warmup complete CPU 0 instructions: 50000002 cycles: 16656266 (Simulation time: 0 hr 15 min 47 sec) 

Heartbeat CPU 0 instructions: 60000000 cycles: 65339032 heartbeat IPC: 0.205411 cumulative IPC: 0.205411 (Simulation time: 0 hr 17 min 3 sec) 
Heartbeat CPU 0 instructions: 70000001 cycles: 113264464 heartbeat IPC: 0.208658 cumulative IPC: 0.207022 (Simulation time: 0 hr 18 min 19 sec) 
Heartbeat CPU 0 instructions: 80000000 cycles: 161869050 heartbeat IPC: 0.205742 cumulative IPC: 0.206593 (Simulation time: 0 hr 19 min 36 sec) 
Heartbeat CPU 0 instructions: 90000000 cycles: 209983965 heartbeat IPC: 0.207836 cumulative IPC: 0.206903 (Simulation time: 0 hr 20 min 53 sec) 
Heartbeat CPU 0 instructions: 100000000 cycles: 257468908 heartbeat IPC: 0.210593 cumulative IPC: 0.20763 (Simulation time: 0 hr 22 min 9 sec) 
Heartbeat CPU 0 instructions: 110000003 cycles: 304853063 heartbeat IPC: 0.211041 cumulative IPC: 0.208191 (Simulation time: 0 hr 23 min 26 sec) 
Heartbeat CPU 0 instructions: 120000000 cycles: 352320823 heartbeat IPC: 0.210669 cumulative IPC: 0.208542 (Simulation time: 0 hr 24 min 42 sec) 
Heartbeat CPU 0 instructions: 130000002 cycles: 399514974 heartbeat IPC: 0.211891 cumulative IPC: 0.208954 (Simulation time: 0 hr 25 min 58 sec) 
Heartbeat CPU 0 instructions: 140000000 cycles: 437964711 heartbeat IPC: 0.26008 cumulative IPC: 0.21362 (Simulation time: 0 hr 27 min 6 sec) 
Heartbeat CPU 0 instructions: 150000002 cycles: 468014073 heartbeat IPC: 0.332786 cumulative IPC: 0.221554 (Simulation time: 0 hr 28 min 5 sec) 
Finished CPU 0 instructions: 100000000 cycles: 451357807 cumulative IPC: 0.221554 (Simulation time: 0 hr 28 min 5 sec) 

ChampSim completed all CPUs

Region of Interest Statistics

CPU 0 cumulative IPC: 0.221554 instructions: 100000000 cycles: 451357807
ITLB TOTAL     ACCESS:   11622520  HIT:   11622520  MISS:          0  HIT %:        100  MISS %:          0   MPKI: 0
ITLB LOAD TRANSLATION ACCESS:   11622520  HIT:   11622520  MISS:          0  HIT %:        100  MISS %:          0   MPKI: 0
ITLB PREFETCH  REQUESTED:          0  ISSUED:          0  USEFUL:          0  USELESS:          0
ITLB USEFUL LOAD PREFETCHES:          0 PREFETCH ISSUED TO LOWER LEVEL:          0  ACCURACY: -nan
ITLB TIMELY PREFETCHES:          0 LATE PREFETCHES: 0 DROPPED PREFETCHES: 0
ITLB PREFETCHES SAME FILL-ORIGIN LEVEL: 0 DIFFERENT FILL-ORIGIN LEVEL: 0
ITLB AVERAGE MISS LATENCY: -nan cycles
ITLB RQ	ACCESS:   11859589	FORWARD:          0	MERGED:     237070	TO_CACHE:   11622519

DTLB TOTAL     ACCESS:   23642497  HIT:   20971696  MISS:    2670801  HIT %:    88.7034  MISS %:    11.2966   MPKI: 26.708
DTLB LOAD TRANSLATION ACCESS:   23642497  HIT:   20971696  MISS:    2670801  HIT %:    88.7034  MISS %:    11.2966   MPKI: 26.708
DTLB PREFETCH  REQUESTED:          0  ISSUED:          0  USEFUL:          0  USELESS:          0
DTLB USEFUL LOAD PREFETCHES:          0 PREFETCH ISSUED TO LOWER LEVEL:          0  ACCURACY: -nan
DTLB TIMELY PREFETCHES:          0 LATE PREFETCHES: 0 DROPPED PREFETCHES: 0
DTLB PREFETCHES SAME FILL-ORIGIN LEVEL: 0 DIFFERENT FILL-ORIGIN LEVEL: 0
DTLB AVERAGE MISS LATENCY: 27.8737 cycles
DTLB RQ	ACCESS:   26125837	FORWARD:          0	MERGED:    1962183	TO_CACHE:   24163654

STLB TOTAL     ACCESS:    8356776  HIT:    7113042  MISS:    1243734  HIT %:    85.1171  MISS %:    14.8829   MPKI: 12.4373
STLB LOAD TRANSLATION ACCESS:    2670801  HIT:    1427286  MISS:    1243515  HIT %:    53.4404  MISS %:    46.5596   MPKI: 12.4352
STLB TRANSLATION FROM L1D PREFETCHER ACCESS:    5685975  HIT:    5685756  MISS:        219  HIT %:    99.9961  MISS %: 0.00385158   MPKI: 0.00219
STLB PREFETCH  REQUESTED:          0  ISSUED:          0  USEFUL:        196  USELESS:         23
STLB USEFUL LOAD PREFETCHES:        196 PREFETCH ISSUED TO LOWER LEVEL:          0  ACCURACY: inf
STLB TIMELY PREFETCHES:        196 LATE PREFETCHES: 0 DROPPED PREFETCHES: 0
STLB PREFETCHES SAME FILL-ORIGIN LEVEL: 0 DIFFERENT FILL-ORIGIN LEVEL: 0
STLB AVERAGE MISS LATENCY: 40.0909 cycles
STLB RQ	ACCESS:   10905493	FORWARD:          0	MERGED:    2548652	TO_CACHE:    8356841

STLB Hit, L1D data hit: 0
STLB Hit, L2C data hit: 0
STLB Hit, LLC data hit: 0
STLB Hit, LLC data miss: 0
STLB STLB hints to L2: 0
L1D TOTAL     ACCESS:   33649051  HIT:   18482519  MISS:   15166532  HIT %:    54.9273  MISS %:    45.0727   MPKI: 151.665
L1D LOAD      ACCESS:   19865642  HIT:   12036137  MISS:    7829505  HIT %:    60.5877  MISS %:    39.4123   MPKI: 78.2951
L1D RFO       ACCESS:    6087059  HIT:    6065511  MISS:      21548  HIT %:     99.646  MISS %:   0.353997   MPKI: 0.21548
L1D PREFETCH  ACCESS:    7696350  HIT:     380871  MISS:    7315479  HIT %:    4.94872  MISS %:    95.0513   MPKI: 73.1548
AGUS PREFETCH L1 MISS: 0
L1D PREFETCH  REQUESTED:   16647151  ISSUED:   16469400  USEFUL:     433585  USELESS:    6881900
L1D USEFUL LOAD PREFETCHES:     433585 PREFETCH ISSUED TO LOWER LEVEL:    7462359  ACCURACY: 5.81029
L1D TIMELY PREFETCHES:     433585 LATE PREFETCHES: 146881 DROPPED PREFETCHES: 0
L1D PREFETCHES SAME FILL-ORIGIN LEVEL: 7462359 DIFFERENT FILL-ORIGIN LEVEL: 0
L1D AVERAGE MISS LATENCY: 198.085 cycles
L1D RQ	ACCESS:   27979205	FORWARD:          0	MERGED:    7854000	TO_CACHE:   20007454
L1D WQ	ACCESS:    6899176	FORWARD:     117765	MERGED:     780793	TO_CACHE:    6118383
L1D PQ	ACCESS:    8234707	FORWARD:          0	MERGED:          0	TO_CACHE:    8234693

L1D UNIQUE REGIONS ACCESSED: 0
L1D REGIONS CONFLICTS: 0
L1D Cross Page Prefetch Requests: 0
L1D Same Page Prefetch Requests: 11990270
L1D ROI Sum of L1D PQ occupancy: 176779402
L1D PREFETCHES PUSHED FROM L2C: 0
L1I TOTAL     ACCESS:   11859589  HIT:   11859589  MISS:          0  HIT %:        100  MISS %:          0   MPKI: 0
L1I LOAD      ACCESS:   11859589  HIT:   11859589  MISS:          0  HIT %:        100  MISS %:          0   MPKI: 0
L1I PREFETCH  REQUESTED:          0  ISSUED:          0  USEFUL:          0  USELESS:          0
L1I USEFUL LOAD PREFETCHES:          0 PREFETCH ISSUED TO LOWER LEVEL:          0  ACCURACY: -nan
L1I TIMELY PREFETCHES:          0 LATE PREFETCHES: 0 DROPPED PREFETCHES: 0
L1I PREFETCHES SAME FILL-ORIGIN LEVEL: 0 DIFFERENT FILL-ORIGIN LEVEL: 0
L1I AVERAGE MISS LATENCY: -nan cycles
L1I RQ	ACCESS:   21185503	FORWARD:          0	MERGED:    9325914	TO_CACHE:   11859589

BTB TOTAL     ACCESS:   15463578  HIT:   15463536  MISS:         42  HIT %:    99.9997  MISS %: 0.000271606   MPKI: 0.00042
BTB BRANCH_DIRECT_JUMP	ACCESS:     171252  HIT:     171240  MISS:         12
BTB BRANCH_INDIRECT	ACCESS:          0  HIT:          0  MISS:          0
BTB BRANCH_CONDITIONAL	ACCESS:   15292294  HIT:   15292279  MISS:         15
BTB BRANCH_DIRECT_CALL	ACCESS:         16  HIT:          9  MISS:          7
BTB BRANCH_INDIRECT_CALL	ACCESS:          0  HIT:          0  MISS:          0
BTB BRANCH_RETURN	ACCESS:         16  HIT:          8  MISS:          8
BTB BRANCH_OTHER ACCESS:          0  HIT:          0  MISS:          0

L2C TOTAL     ACCESS:   19708808  HIT:    5258638  MISS:   14450170  HIT %:    26.6817  MISS %:    73.3183   MPKI: 144.502
L2C LOAD      ACCESS:    7682622  HIT:     493379  MISS:    7189243  HIT %:    6.42201  MISS %:     93.578   MPKI: 71.8924
L2C DATA LOAD MPKI: 71.8924
L2C INSTRUCTION LOAD MPKI: 0
L2C RFO       ACCESS:      21548  HIT:        493  MISS:      21055  HIT %:    2.28792  MISS %:    97.7121   MPKI: 0.21055
L2C PREFETCH  ACCESS:    7462359  HIT:     391408  MISS:    7070951  HIT %:     5.2451  MISS %:    94.7549   MPKI: 70.7095
AGUS PREFETCH L1 MISS: 0
L2C DATA PREFETCH MPKI: 70.7095
L2C INSTRUCTION PREFETCH MPKI: 0
L2C WRITEBACK ACCESS:    3298359  HIT:    3298262  MISS:         97  HIT %:    99.9971  MISS %: 0.00294086   MPKI: 0.00097
L2C LOAD TRANSLATION ACCESS:    1243701  HIT:    1074902  MISS:     168799  HIT %:    86.4277  MISS %:    13.5723   MPKI: 1.68799
L2C TRANSLATION FROM L1D PREFETCHER ACCESS:        219  HIT:        194  MISS:         25  HIT %:    88.5845  MISS %:    11.4155   MPKI: 0.00025
L2C PREFETCH  REQUESTED:          0  ISSUED:          0  USEFUL:      85791  USELESS:    6985284
L2C USEFUL LOAD PREFETCHES:      85791 PREFETCH ISSUED TO LOWER LEVEL:    7070951  ACCURACY: 1.21329
L2C TIMELY PREFETCHES:      85791 LATE PREFETCHES: 0 DROPPED PREFETCHES: 0
L2C PREFETCHES SAME FILL-ORIGIN LEVEL: 0 DIFFERENT FILL-ORIGIN LEVEL: 0
L2C AVERAGE MISS LATENCY: 192.647 cycles
L2C RQ	ACCESS:    8948092	FORWARD:          0	MERGED:          0	TO_CACHE:    8948090
L2C WQ	ACCESS:    3298359	FORWARD:          2	MERGED:          0	TO_CACHE:    3298359
L2C PQ	ACCESS:    7462359	FORWARD:          0	MERGED:          0	TO_CACHE:    7462359

L2C Instructions Evicting Data 0
L2C Translations Evicting Data 165593
L2C Data Evicting Data 14115561
L2C Instructions Evicting Instructions 0
L2C Translations Evicting Instructions 0
L2C Data Evicting Instructions 0
L2C Instructions Evicting Translations 0
L2C Translations Evicting Translations 3231
L2C Data Evicting Translations 165688
L2C Dense regions hint from L2: 0
PSCL5 TOTAL     ACCESS:    1243733  HIT:    1243733  MISS:          0  HIT %:        100  MISS %:          0   MPKI: 0
PSCL5 LOAD TRANSLATION ACCESS:    1243514  HIT:    1243514  MISS:          0  HIT %:        100  MISS %:          0   MPKI: 0
PSCL5 TRANSLATION FROM L1D PREFETCHER ACCESS:        219  HIT:        219  MISS:          0  HIT %:        100  MISS %:          0   MPKI: 0
PSCL5 PREFETCH  REQUESTED:          0  ISSUED:          0  USEFUL:          0  USELESS:          0
PSCL5 USEFUL LOAD PREFETCHES:          0 PREFETCH ISSUED TO LOWER LEVEL:          0  ACCURACY: -nan
PSCL5 TIMELY PREFETCHES:          0 LATE PREFETCHES: 0 DROPPED PREFETCHES: 0
PSCL5 PREFETCHES SAME FILL-ORIGIN LEVEL: 0 DIFFERENT FILL-ORIGIN LEVEL: 0

PSCL4 TOTAL     ACCESS:    1243733  HIT:    1243733  MISS:          0  HIT %:        100  MISS %:          0   MPKI: 0
PSCL4 LOAD TRANSLATION ACCESS:    1243514  HIT:    1243514  MISS:          0  HIT %:        100  MISS %:          0   MPKI: 0
PSCL4 TRANSLATION FROM L1D PREFETCHER ACCESS:        219  HIT:        219  MISS:          0  HIT %:        100  MISS %:          0   MPKI: 0
PSCL4 PREFETCH  REQUESTED:          0  ISSUED:          0  USEFUL:          0  USELESS:          0
PSCL4 USEFUL LOAD PREFETCHES:          0 PREFETCH ISSUED TO LOWER LEVEL:          0  ACCURACY: -nan
PSCL4 TIMELY PREFETCHES:          0 LATE PREFETCHES: 0 DROPPED PREFETCHES: 0
PSCL4 PREFETCHES SAME FILL-ORIGIN LEVEL: 0 DIFFERENT FILL-ORIGIN LEVEL: 0

PSCL3 TOTAL     ACCESS:    1243733  HIT:    1243733  MISS:          0  HIT %:        100  MISS %:          0   MPKI: 0
PSCL3 LOAD TRANSLATION ACCESS:    1243514  HIT:    1243514  MISS:          0  HIT %:        100  MISS %:          0   MPKI: 0
PSCL3 TRANSLATION FROM L1D PREFETCHER ACCESS:        219  HIT:        219  MISS:          0  HIT %:        100  MISS %:          0   MPKI: 0
PSCL3 PREFETCH  REQUESTED:          0  ISSUED:          0  USEFUL:          0  USELESS:          0
PSCL3 USEFUL LOAD PREFETCHES:          0 PREFETCH ISSUED TO LOWER LEVEL:          0  ACCURACY: -nan
PSCL3 TIMELY PREFETCHES:          0 LATE PREFETCHES: 0 DROPPED PREFETCHES: 0
PSCL3 PREFETCHES SAME FILL-ORIGIN LEVEL: 0 DIFFERENT FILL-ORIGIN LEVEL: 0

PSCL2 TOTAL     ACCESS:    1243733  HIT:    1243508  MISS:        225  HIT %:    99.9819  MISS %:  0.0180907   MPKI: 0.00225
PSCL2 LOAD TRANSLATION ACCESS:    1243514  HIT:    1243289  MISS:        225  HIT %:    99.9819  MISS %:  0.0180939   MPKI: 0.00225
PSCL2 TRANSLATION FROM L1D PREFETCHER ACCESS:        219  HIT:        219  MISS:          0  HIT %:        100  MISS %:          0   MPKI: 0
PSCL2 PREFETCH  REQUESTED:          0  ISSUED:          0  USEFUL:          0  USELESS:          0
PSCL2 USEFUL LOAD PREFETCHES:          0 PREFETCH ISSUED TO LOWER LEVEL:          0  ACCURACY: -nan
PSCL2 TIMELY PREFETCHES:          0 LATE PREFETCHES: 0 DROPPED PREFETCHES: 0
PSCL2 PREFETCHES SAME FILL-ORIGIN LEVEL: 0 DIFFERENT FILL-ORIGIN LEVEL: 0

LLC TOTAL     ACCESS:   17680668  HIT:    7326312  MISS:   10354356  HIT %:    41.4369  MISS %:    58.5631   MPKI: 103.544
LLC LOAD      ACCESS:    7189229  HIT:    2157664  MISS:    5031565  HIT %:    30.0125  MISS %:    69.9875   MPKI: 50.3156
LLC RFO       ACCESS:      21055  HIT:        241  MISS:      20814  HIT %:    1.14462  MISS %:    98.8554   MPKI: 0.20814
LLC PREFETCH  ACCESS:    7070948  HIT:    1798446  MISS:    5272502  HIT %:    25.4343  MISS %:    74.5657   MPKI: 52.725
AGUS PREFETCH L1 MISS: 0
LLC WRITEBACK ACCESS:    3230612  HIT:    3230518  MISS:         94  HIT %:    99.9971  MISS %: 0.00290967   MPKI: 0.00094
LLC LOAD TRANSLATION ACCESS:     168799  HIT:     139426  MISS:      29373  HIT %:    82.5988  MISS %:    17.4012   MPKI: 0.29373
LLC TRANSLATION FROM L1D PREFETCHER ACCESS:         25  HIT:         17  MISS:          8  HIT %:         68  MISS %:         32   MPKI: 8e-05
LLC PREFETCH  REQUESTED:          0  ISSUED:          0  USEFUL:     397913  USELESS:    4877116
LLC USEFUL LOAD PREFETCHES:     397913 PREFETCH ISSUED TO LOWER LEVEL:    5272502  ACCURACY: 7.54695
LLC TIMELY PREFETCHES:     397913 LATE PREFETCHES: 0 DROPPED PREFETCHES: 0
LLC PREFETCHES SAME FILL-ORIGIN LEVEL: 0 DIFFERENT FILL-ORIGIN LEVEL: 0
LLC AVERAGE MISS LATENCY: 226.917 cycles
LLC RQ	ACCESS:    7379122	FORWARD:          0	MERGED:          0	TO_CACHE:    7379108
LLC WQ	ACCESS:    3230612	FORWARD:         17	MERGED:          0	TO_CACHE:    3230612
LLC PQ	ACCESS:    7070951	FORWARD:          0	MERGED:          0	TO_CACHE:    7070948

LLC Dense regions hint to LLC: 0

RAW hits: 2391662
Loads Generated: 30370867
Loads sent to L1D: 27979205
Stores Generated: 6899166
Stores sent to L1D: 6899176
Major fault: 0 Minor fault: 17928
Allocated PAGES: 17928

stream: 
stream:times selected: 12296462
stream:pref_filled: 9968305
stream:pref_useful: 309154
stream:pref_late: 191918
stream:misses: 2364776
stream:misses_by_poll: 0

CS: 
CS:times selected: 543216
CS:pref_filled: 502450
CS:pref_useful: 419158
CS:pref_late: 7114
CS:misses: 62949
CS:misses_by_poll: 115

CPLX: 
CPLX:times selected: 11695377
CPLX:pref_filled: 229291
CPLX:pref_useful: 14493
CPLX:pref_late: 6513
CPLX:misses: 8854463
CPLX:misses_by_poll: 60

NL_L1: 
NL:times selected: 18926
NL:pref_filled: 17557
NL:pref_useful: 368
NL:pref_late: 162
NL:misses: 18419
NL:misses_by_poll: 0

total selections: 24553981
total_filled: 7315479
total_useful: 433585
total_late: 208554
total_polluted: 175
total_misses_after_warmup: 7971319
conflicts: 14431

test: 4220809

DRAM Statistics
 CHANNEL 0
 RQ ROW_BUFFER_HIT:    2800987  ROW_BUFFER_MISS:    7550934
 DBUS_CONGESTED:       2284
 WQ ROW_BUFFER_HIT:     818518  ROW_BUFFER_MISS:    1866781  FULL:          0

 AVG_CONGESTED_CYCLE: 5
 All warmup complete: 2
Channel 0 Bank busy for read cycles: 0
Channel 0 Bank busy for write cycles: 0
Channel 0
Rank 0
0banks busy for read cycles: 1997193
0banks busy for write cycles: 7134
1banks busy for read cycles: 58358722
1banks busy for write cycles: 2363336
2banks busy for read cycles: 65576365
2banks busy for write cycles: 2435348
3banks busy for read cycles: 52133105
3banks busy for write cycles: 2312443
4banks busy for read cycles: 49509087
4banks busy for write cycles: 2175974
5banks busy for read cycles: 43357971
5banks busy for write cycles: 2308727
6banks busy for read cycles: 36572327
6banks busy for write cycles: 3737963
7banks busy for read cycles: 27049484
7banks busy for write cycles: 14668402
8banks busy for read cycles: 14526151
8banks busy for write cycles: 72268076

CPU 0 Branch Prediction Accuracy: 95.1173% MPKI: 7.5548 Average ROB Occupancy at Mispredict: 97.0772
Branch types
NOT_BRANCH: 84527442 84.5274%
BRANCH_DIRECT_JUMP: 171252 0.171252%
BRANCH_INDIRECT: 0 0%
BRANCH_CONDITIONAL: 15301250 15.3012%
BRANCH_DIRECT_CALL: 16 1.6e-05%
BRANCH_INDIRECT_CALL: 0 0%
BRANCH_RETURN: 16 1.6e-05%
BRANCH_OTHER: 0 0%

DRAM PAGES: 1048576
Allocated PAGES: 17928
