
*** ChampSim Multicore Out-of-Order Simulator ***

Warmup Instructions: 50000000
Simulation Instructions: 50000000
Number of CPUs: 1
LLC sets: 2048
LLC ways: 16
Off-chip DRAM Size: 4096 MB Channels: 1 Width: 64-bit Data Rate: 6400 MT/s
CPU 0 runs ./traces/GAP/SUBSET/bc-5.trace.gz
.gz
CPU 0 Bimodal branch predictor
BTB has LRU replacement policy
ITLB has LRU replacement policy
DTLB has LRU replacement policy
STLB has LRU replacement policy
L1I has LRU replacement policy
L1D has LRU replacement policy
L2C has LRU replacement policy
LLC has LRU replacement policy
Heartbeat CPU 0 instructions: 10000002 cycles: 3699571 heartbeat IPC: 2.70302 cumulative IPC: 2.70302 (Simulation time: 0 hr 0 min 41 sec) 
Heartbeat CPU 0 instructions: 20000000 cycles: 6942171 heartbeat IPC: 3.08394 cumulative IPC: 2.88094 (Simulation time: 0 hr 1 min 11 sec) 
Heartbeat CPU 0 instructions: 30000001 cycles: 10181484 heartbeat IPC: 3.08707 cumulative IPC: 2.94653 (Simulation time: 0 hr 1 min 40 sec) 
Heartbeat CPU 0 instructions: 40000000 cycles: 13415613 heartbeat IPC: 3.09202 cumulative IPC: 2.9816 (Simulation time: 0 hr 2 min 10 sec) 
Heartbeat CPU 0 instructions: 50000002 cycles: 16655802 heartbeat IPC: 3.08624 cumulative IPC: 3.00196 (Simulation time: 0 hr 2 min 40 sec) 

Warmup complete CPU 0 instructions: 50000002 cycles: 16655802 (Simulation time: 0 hr 2 min 40 sec) 

Heartbeat CPU 0 instructions: 60000000 cycles: 60614869 heartbeat IPC: 0.227484 cumulative IPC: 0.227484 (Simulation time: 0 hr 3 min 40 sec) 
Heartbeat CPU 0 instructions: 70000000 cycles: 104424560 heartbeat IPC: 0.22826 cumulative IPC: 0.227871 (Simulation time: 0 hr 4 min 41 sec) 
Heartbeat CPU 0 instructions: 80000000 cycles: 147204952 heartbeat IPC: 0.233752 cumulative IPC: 0.229798 (Simulation time: 0 hr 5 min 43 sec) 
Heartbeat CPU 0 instructions: 90000000 cycles: 190032095 heartbeat IPC: 0.233497 cumulative IPC: 0.230712 (Simulation time: 0 hr 6 min 44 sec) 
Heartbeat CPU 0 instructions: 100000000 cycles: 232674232 heartbeat IPC: 0.23451 cumulative IPC: 0.231462 (Simulation time: 0 hr 7 min 47 sec) 
Finished CPU 0 instructions: 50000002 cycles: 216018686 cumulative IPC: 0.231461 (Simulation time: 0 hr 7 min 47 sec) 

ChampSim completed all CPUs

Region of Interest Statistics

CPU 0 cumulative IPC: 0.231461 instructions: 50000002 cycles: 216018686
ITLB TOTAL     ACCESS:    4713155  HIT:    4713155  MISS:          0  HIT %:        100  MISS %:          0   MPKI: 0
ITLB LOAD TRANSLATION ACCESS:    4713155  HIT:    4713155  MISS:          0  HIT %:        100  MISS %:          0   MPKI: 0
ITLB PREFETCH  REQUESTED:          0  ISSUED:          0  USEFUL:          0  USELESS:          0
ITLB USEFUL LOAD PREFETCHES:          0 PREFETCH ISSUED TO LOWER LEVEL:          0  ACCURACY: -nan
ITLB TIMELY PREFETCHES:          0 LATE PREFETCHES: 0 DROPPED PREFETCHES: 0
ITLB PREFETCHES SAME FILL-ORIGIN LEVEL: 0 DIFFERENT FILL-ORIGIN LEVEL: 0
ITLB AVERAGE MISS LATENCY: -nan cycles
ITLB RQ	ACCESS:    4849249	FORWARD:          0	MERGED:     136095	TO_CACHE:    4713154

DTLB TOTAL     ACCESS:   13058354  HIT:   11908428  MISS:    1149926  HIT %:    91.1939  MISS %:    8.80606   MPKI: 22.9985
DTLB LOAD TRANSLATION ACCESS:   13058354  HIT:   11908428  MISS:    1149926  HIT %:    91.1939  MISS %:    8.80606   MPKI: 22.9985
DTLB PREFETCH  REQUESTED:          0  ISSUED:          0  USEFUL:          0  USELESS:          0
DTLB USEFUL LOAD PREFETCHES:          0 PREFETCH ISSUED TO LOWER LEVEL:          0  ACCURACY: -nan
DTLB TIMELY PREFETCHES:          0 LATE PREFETCHES: 0 DROPPED PREFETCHES: 0
DTLB PREFETCHES SAME FILL-ORIGIN LEVEL: 0 DIFFERENT FILL-ORIGIN LEVEL: 0
DTLB AVERAGE MISS LATENCY: 27.6231 cycles
DTLB RQ	ACCESS:   14312889	FORWARD:          0	MERGED:    1027177	TO_CACHE:   13285712

STLB TOTAL     ACCESS:    1149926  HIT:     458379  MISS:     691547  HIT %:    39.8616  MISS %:    60.1384   MPKI: 13.8309
STLB LOAD TRANSLATION ACCESS:    1149926  HIT:     458379  MISS:     691547  HIT %:    39.8616  MISS %:    60.1384   MPKI: 13.8309
STLB PREFETCH  REQUESTED:          0  ISSUED:          0  USEFUL:          0  USELESS:          0
STLB USEFUL LOAD PREFETCHES:          0 PREFETCH ISSUED TO LOWER LEVEL:          0  ACCURACY: -nan
STLB TIMELY PREFETCHES:          0 LATE PREFETCHES: 0 DROPPED PREFETCHES: 0
STLB PREFETCHES SAME FILL-ORIGIN LEVEL: 0 DIFFERENT FILL-ORIGIN LEVEL: 0
STLB AVERAGE MISS LATENCY: 30.7078 cycles
STLB RQ	ACCESS:    1149925	FORWARD:          0	MERGED:          0	TO_CACHE:    1149925

STLB Hit, L1D data hit: 0
STLB Hit, L2C data hit: 0
STLB Hit, LLC data hit: 0
STLB Hit, LLC data miss: 0
STLB STLB hints to L2: 0
L1D TOTAL     ACCESS:   14078040  HIT:   10054453  MISS:    4023587  HIT %:    71.4194  MISS %:    28.5806   MPKI: 80.4717
L1D LOAD      ACCESS:   10501855  HIT:    6490528  MISS:    4011327  HIT %:    61.8036  MISS %:    38.1964   MPKI: 80.2265
L1D RFO       ACCESS:    3576185  HIT:    3563925  MISS:      12260  HIT %:    99.6572  MISS %:   0.342823   MPKI: 0.2452
L1D PREFETCH  REQUESTED:          0  ISSUED:          0  USEFUL:          0  USELESS:          0
L1D USEFUL LOAD PREFETCHES:          0 PREFETCH ISSUED TO LOWER LEVEL:          0  ACCURACY: -nan
L1D TIMELY PREFETCHES:          0 LATE PREFETCHES: 0 DROPPED PREFETCHES: 0
L1D PREFETCHES SAME FILL-ORIGIN LEVEL: 0 DIFFERENT FILL-ORIGIN LEVEL: 0
L1D AVERAGE MISS LATENCY: 157.045 cycles
L1D RQ	ACCESS:   14829012	FORWARD:          0	MERGED:    4041832	TO_CACHE:   10718996
L1D WQ	ACCESS:    4026353	FORWARD:      68184	MERGED:     432460	TO_CACHE:    3593893

L1D UNIQUE REGIONS ACCESSED: 0
L1D REGIONS CONFLICTS: 0
L1D Cross Page Prefetch Requests: 0
L1D Same Page Prefetch Requests: 0
L1D ROI Sum of L1D PQ occupancy: 0
L1D PREFETCHES PUSHED FROM L2C: 0
L1I TOTAL     ACCESS:    4849250  HIT:    4849250  MISS:          0  HIT %:        100  MISS %:          0   MPKI: 0
L1I LOAD      ACCESS:    4849250  HIT:    4849250  MISS:          0  HIT %:        100  MISS %:          0   MPKI: 0
L1I PREFETCH  REQUESTED:          0  ISSUED:          0  USEFUL:          0  USELESS:          0
L1I USEFUL LOAD PREFETCHES:          0 PREFETCH ISSUED TO LOWER LEVEL:          0  ACCURACY: -nan
L1I TIMELY PREFETCHES:          0 LATE PREFETCHES: 0 DROPPED PREFETCHES: 0
L1I PREFETCHES SAME FILL-ORIGIN LEVEL: 0 DIFFERENT FILL-ORIGIN LEVEL: 0
L1I AVERAGE MISS LATENCY: -nan cycles
L1I RQ	ACCESS:    9443813	FORWARD:          0	MERGED:    4594564	TO_CACHE:    4849249

BTB TOTAL     ACCESS:    6742349  HIT:    6742335  MISS:         14  HIT %:    99.9998  MISS %: 0.000207643   MPKI: 0.00028
BTB BRANCH_DIRECT_JUMP	ACCESS:      98814  HIT:      98810  MISS:          4
BTB BRANCH_INDIRECT	ACCESS:          0  HIT:          0  MISS:          0
BTB BRANCH_CONDITIONAL	ACCESS:    6643523  HIT:    6643515  MISS:          8
BTB BRANCH_DIRECT_CALL	ACCESS:          6  HIT:          5  MISS:          1
BTB BRANCH_INDIRECT_CALL	ACCESS:          0  HIT:          0  MISS:          0
BTB BRANCH_RETURN	ACCESS:          6  HIT:          5  MISS:          1
BTB BRANCH_OTHER ACCESS:          0  HIT:          0  MISS:          0

L2C TOTAL     ACCESS:    6630713  HIT:    2844051  MISS:    3786662  HIT %:    42.8921  MISS %:    57.1079   MPKI: 75.7332
L2C LOAD      ACCESS:    4011326  HIT:     284308  MISS:    3727018  HIT %:    7.08763  MISS %:    92.9124   MPKI: 74.5404
L2C DATA LOAD MPKI: 74.5404
L2C INSTRUCTION LOAD MPKI: 0
L2C RFO       ACCESS:      12260  HIT:         62  MISS:      12198  HIT %:    0.50571  MISS %:    99.4943   MPKI: 0.24396
L2C PREFETCH  ACCESS:         28  HIT:          1  MISS:         27  HIT %:    3.57143  MISS %:    96.4286   MPKI: 0.00054
AGUS PREFETCH L1 MISS: 0
L2C DATA PREFETCH MPKI: 0.00054
L2C INSTRUCTION PREFETCH MPKI: 0
L2C WRITEBACK ACCESS:    1915540  HIT:    1915522  MISS:         18  HIT %:    99.9991  MISS %: 0.000939683   MPKI: 0.00036
L2C LOAD TRANSLATION ACCESS:     691559  HIT:     644158  MISS:      47401  HIT %:    93.1458  MISS %:    6.85422   MPKI: 0.94802
L2C PREFETCH  REQUESTED:         42  ISSUED:         42  USEFUL:          5  USELESS:         22
L2C USEFUL LOAD PREFETCHES:          5 PREFETCH ISSUED TO LOWER LEVEL:         30  ACCURACY: 16.6667
L2C TIMELY PREFETCHES:          5 LATE PREFETCHES: 3 DROPPED PREFETCHES: 0
L2C PREFETCHES SAME FILL-ORIGIN LEVEL: 30 DIFFERENT FILL-ORIGIN LEVEL: 0
L2C AVERAGE MISS LATENCY: 151.398 cycles
L2C RQ	ACCESS:    4715152	FORWARD:          0	MERGED:          0	TO_CACHE:    4715151
L2C WQ	ACCESS:    1915541	FORWARD:          1	MERGED:          0	TO_CACHE:    1915541
L2C PQ	ACCESS:         42	FORWARD:          0	MERGED:          0	TO_CACHE:         42

L2C Instructions Evicting Data 0
L2C Translations Evicting Data 46434
L2C Data Evicting Data 3692820
L2C Instructions Evicting Instructions 0
L2C Translations Evicting Instructions 0
L2C Data Evicting Instructions 0
L2C Instructions Evicting Translations 0
L2C Translations Evicting Translations 967
L2C Data Evicting Translations 46423
L2C Dense regions hint from L2: 0
PSCL5 TOTAL     ACCESS:     691546  HIT:     691546  MISS:          0  HIT %:        100  MISS %:          0   MPKI: 0
PSCL5 LOAD TRANSLATION ACCESS:     691546  HIT:     691546  MISS:          0  HIT %:        100  MISS %:          0   MPKI: 0
PSCL5 PREFETCH  REQUESTED:          0  ISSUED:          0  USEFUL:          0  USELESS:          0
PSCL5 USEFUL LOAD PREFETCHES:          0 PREFETCH ISSUED TO LOWER LEVEL:          0  ACCURACY: -nan
PSCL5 TIMELY PREFETCHES:          0 LATE PREFETCHES: 0 DROPPED PREFETCHES: 0
PSCL5 PREFETCHES SAME FILL-ORIGIN LEVEL: 0 DIFFERENT FILL-ORIGIN LEVEL: 0

PSCL4 TOTAL     ACCESS:     691546  HIT:     691546  MISS:          0  HIT %:        100  MISS %:          0   MPKI: 0
PSCL4 LOAD TRANSLATION ACCESS:     691546  HIT:     691546  MISS:          0  HIT %:        100  MISS %:          0   MPKI: 0
PSCL4 PREFETCH  REQUESTED:          0  ISSUED:          0  USEFUL:          0  USELESS:          0
PSCL4 USEFUL LOAD PREFETCHES:          0 PREFETCH ISSUED TO LOWER LEVEL:          0  ACCURACY: -nan
PSCL4 TIMELY PREFETCHES:          0 LATE PREFETCHES: 0 DROPPED PREFETCHES: 0
PSCL4 PREFETCHES SAME FILL-ORIGIN LEVEL: 0 DIFFERENT FILL-ORIGIN LEVEL: 0

PSCL3 TOTAL     ACCESS:     691546  HIT:     691546  MISS:          0  HIT %:        100  MISS %:          0   MPKI: 0
PSCL3 LOAD TRANSLATION ACCESS:     691546  HIT:     691546  MISS:          0  HIT %:        100  MISS %:          0   MPKI: 0
PSCL3 PREFETCH  REQUESTED:          0  ISSUED:          0  USEFUL:          0  USELESS:          0
PSCL3 USEFUL LOAD PREFETCHES:          0 PREFETCH ISSUED TO LOWER LEVEL:          0  ACCURACY: -nan
PSCL3 TIMELY PREFETCHES:          0 LATE PREFETCHES: 0 DROPPED PREFETCHES: 0
PSCL3 PREFETCHES SAME FILL-ORIGIN LEVEL: 0 DIFFERENT FILL-ORIGIN LEVEL: 0

PSCL2 TOTAL     ACCESS:     691546  HIT:     691511  MISS:         35  HIT %:    99.9949  MISS %: 0.00506112   MPKI: 0.0007
PSCL2 LOAD TRANSLATION ACCESS:     691546  HIT:     691511  MISS:         35  HIT %:    99.9949  MISS %: 0.00506112   MPKI: 0.0007
PSCL2 PREFETCH  REQUESTED:          0  ISSUED:          0  USEFUL:          0  USELESS:          0
PSCL2 USEFUL LOAD PREFETCHES:          0 PREFETCH ISSUED TO LOWER LEVEL:          0  ACCURACY: -nan
PSCL2 TIMELY PREFETCHES:          0 LATE PREFETCHES: 0 DROPPED PREFETCHES: 0
PSCL2 PREFETCHES SAME FILL-ORIGIN LEVEL: 0 DIFFERENT FILL-ORIGIN LEVEL: 0

LLC TOTAL     ACCESS:    5597833  HIT:    3120329  MISS:    2477504  HIT %:    55.7417  MISS %:    44.2583   MPKI: 49.5501
LLC LOAD      ACCESS:    3727005  HIT:    1268833  MISS:    2458172  HIT %:    34.0443  MISS %:    65.9557   MPKI: 49.1634
LLC RFO       ACCESS:      12198  HIT:        304  MISS:      11894  HIT %:    2.49221  MISS %:    97.5078   MPKI: 0.23788
LLC PREFETCH  ACCESS:         30  HIT:          0  MISS:         30  HIT %:          0  MISS %:        100   MPKI: 0.0006
AGUS PREFETCH L1 MISS: 0
LLC WRITEBACK ACCESS:    1811199  HIT:    1811058  MISS:        141  HIT %:    99.9922  MISS %:  0.0077849   MPKI: 0.00282
LLC LOAD TRANSLATION ACCESS:      47401  HIT:      40134  MISS:       7267  HIT %:    84.6691  MISS %:    15.3309   MPKI: 0.14534
LLC PREFETCH  REQUESTED:          0  ISSUED:          0  USEFUL:          0  USELESS:         30
LLC USEFUL LOAD PREFETCHES:          0 PREFETCH ISSUED TO LOWER LEVEL:         30  ACCURACY: 0
LLC TIMELY PREFETCHES:          0 LATE PREFETCHES: 0 DROPPED PREFETCHES: 0
LLC PREFETCHES SAME FILL-ORIGIN LEVEL: 0 DIFFERENT FILL-ORIGIN LEVEL: 0
LLC AVERAGE MISS LATENCY: 185.491 cycles
LLC RQ	ACCESS:    3786620	FORWARD:          0	MERGED:          0	TO_CACHE:    3786610
LLC WQ	ACCESS:    1811200	FORWARD:         10	MERGED:          0	TO_CACHE:    1811200
LLC PQ	ACCESS:         30	FORWARD:          0	MERGED:          0	TO_CACHE:         30

LLC Dense regions hint to LLC: 0

RAW hits: 1374015
Loads Generated: 16203027
Loads sent to L1D: 14829012
Stores Generated: 4026355
Stores sent to L1D: 4026353
Major fault: 0 Minor fault: 12249
Allocated PAGES: 12249

DRAM Statistics
 CHANNEL 0
 RQ ROW_BUFFER_HIT:     326583  ROW_BUFFER_MISS:    2150554
 DBUS_CONGESTED:        895
 WQ ROW_BUFFER_HIT:     762627  ROW_BUFFER_MISS:     485664  FULL:          0

 AVG_CONGESTED_CYCLE: 5
 All warmup complete: 2
Channel 0 Bank busy for read cycles: 0
Channel 0 Bank busy for write cycles: 0
Channel 0
Rank 0
0banks busy for read cycles: 3346724
0banks busy for write cycles: 26050
1banks busy for read cycles: 55436231
1banks busy for write cycles: 5113738
2banks busy for read cycles: 34768215
2banks busy for write cycles: 6265819
3banks busy for read cycles: 23261448
3banks busy for write cycles: 7126357
4banks busy for read cycles: 15302566
4banks busy for write cycles: 7795554
5banks busy for read cycles: 9038802
5banks busy for write cycles: 8407948
6banks busy for read cycles: 4319660
6banks busy for write cycles: 9240886
7banks busy for read cycles: 1365959
7banks busy for write cycles: 11300419
8banks busy for read cycles: 315780
8banks busy for write cycles: 13586531

CPU 0 Branch Prediction Accuracy: 93.8016% MPKI: 8.36614 Average ROB Occupancy at Mispredict: 91.4557
Branch types
NOT_BRANCH: 43251276 86.5025%
BRANCH_DIRECT_JUMP: 98814 0.197628%
BRANCH_INDIRECT: 0 0%
BRANCH_CONDITIONAL: 6649819 13.2996%
BRANCH_DIRECT_CALL: 6 1.2e-05%
BRANCH_INDIRECT_CALL: 0 0%
BRANCH_RETURN: 6 1.2e-05%
BRANCH_OTHER: 0 0%

DRAM PAGES: 1048576
Allocated PAGES: 12249
