
*** ChampSim Multicore Out-of-Order Simulator ***

Warmup Instructions: 50000000
Simulation Instructions: 100000000
Number of CPUs: 1
LLC sets: 2048
LLC ways: 16
Off-chip DRAM Size: 4096 MB Channels: 1 Width: 64-bit Data Rate: 6400 MT/s
CPU 0 runs ./traces/GAP/SUBSET/bfs-8.trace.gz
.gz
CPU 0 Bimodal branch predictor
BTB has LRU replacement policy
ITLB has LRU replacement policy
DTLB has LRU replacement policy
STLB has LRU replacement policy
L1I has LRU replacement policy
L1D has LRU replacement policy
L2C has LRU replacement policy
LLC has LRU replacement policy
Heartbeat CPU 0 instructions: 10000003 cycles: 2954008 heartbeat IPC: 3.38523 cumulative IPC: 3.38523 (Simulation time: 0 hr 0 min 40 sec) 
Heartbeat CPU 0 instructions: 20000000 cycles: 6055103 heartbeat IPC: 3.22467 cumulative IPC: 3.303 (Simulation time: 0 hr 3 min 18 sec) 
Heartbeat CPU 0 instructions: 30000002 cycles: 9180917 heartbeat IPC: 3.19917 cumulative IPC: 3.26765 (Simulation time: 0 hr 6 min 2 sec) 
Heartbeat CPU 0 instructions: 40000000 cycles: 12410823 heartbeat IPC: 3.09606 cumulative IPC: 3.22299 (Simulation time: 0 hr 8 min 11 sec) 
Heartbeat CPU 0 instructions: 50000002 cycles: 15681497 heartbeat IPC: 3.05747 cumulative IPC: 3.18847 (Simulation time: 0 hr 9 min 6 sec) 

Warmup complete CPU 0 instructions: 50000002 cycles: 15681497 (Simulation time: 0 hr 9 min 6 sec) 

Heartbeat CPU 0 instructions: 60000000 cycles: 36320185 heartbeat IPC: 0.484527 cumulative IPC: 0.484527 (Simulation time: 0 hr 10 min 37 sec) 
Heartbeat CPU 0 instructions: 70000001 cycles: 56672473 heartbeat IPC: 0.491345 cumulative IPC: 0.487912 (Simulation time: 0 hr 11 min 46 sec) 
Heartbeat CPU 0 instructions: 80000000 cycles: 90380780 heartbeat IPC: 0.296663 cumulative IPC: 0.40161 (Simulation time: 0 hr 13 min 46 sec) 
Heartbeat CPU 0 instructions: 90000000 cycles: 130995827 heartbeat IPC: 0.246214 cumulative IPC: 0.346878 (Simulation time: 0 hr 16 min 23 sec) 
Heartbeat CPU 0 instructions: 100000000 cycles: 171626509 heartbeat IPC: 0.246119 cumulative IPC: 0.320626 (Simulation time: 0 hr 18 min 56 sec) 
Heartbeat CPU 0 instructions: 110000001 cycles: 216274931 heartbeat IPC: 0.223972 cumulative IPC: 0.299112 (Simulation time: 0 hr 20 min 55 sec) 
Heartbeat CPU 0 instructions: 120000000 cycles: 253982534 heartbeat IPC: 0.265198 cumulative IPC: 0.293746 (Simulation time: 0 hr 22 min 24 sec) 
Heartbeat CPU 0 instructions: 130000001 cycles: 268361813 heartbeat IPC: 0.695445 cumulative IPC: 0.316606 (Simulation time: 0 hr 23 min 26 sec) 
Heartbeat CPU 0 instructions: 140000000 cycles: 282361399 heartbeat IPC: 0.714307 cumulative IPC: 0.337483 (Simulation time: 0 hr 24 min 37 sec) 
Heartbeat CPU 0 instructions: 150000002 cycles: 312280979 heartbeat IPC: 0.334229 cumulative IPC: 0.337155 (Simulation time: 0 hr 26 min 24 sec) 
Finished CPU 0 instructions: 100000000 cycles: 296599482 cumulative IPC: 0.337155 (Simulation time: 0 hr 26 min 24 sec) 

ChampSim completed all CPUs

Region of Interest Statistics

CPU 0 cumulative IPC: 0.337155 instructions: 100000000 cycles: 296599482
ITLB TOTAL     ACCESS:   16708814  HIT:   16708814  MISS:          0  HIT %:        100  MISS %:          0   MPKI: 0
ITLB LOAD TRANSLATION ACCESS:   16708814  HIT:   16708814  MISS:          0  HIT %:        100  MISS %:          0   MPKI: 0
ITLB PREFETCH  REQUESTED:          0  ISSUED:          0  USEFUL:          0  USELESS:          0
ITLB USEFUL LOAD PREFETCHES:          0 PREFETCH ISSUED TO LOWER LEVEL:          0  ACCURACY: -nan
ITLB TIMELY PREFETCHES:          0 LATE PREFETCHES: 0 DROPPED PREFETCHES: 0
ITLB PREFETCHES SAME FILL-ORIGIN LEVEL: 0 DIFFERENT FILL-ORIGIN LEVEL: 0
ITLB AVERAGE MISS LATENCY: -nan cycles
ITLB RQ	ACCESS:   21401542	FORWARD:          0	MERGED:    4692729	TO_CACHE:   16708813

DTLB TOTAL     ACCESS:   18245453  HIT:   18097755  MISS:     147698  HIT %:    99.1905  MISS %:   0.809506   MPKI: 1.47698
DTLB LOAD TRANSLATION ACCESS:   18245453  HIT:   18097755  MISS:     147698  HIT %:    99.1905  MISS %:   0.809506   MPKI: 1.47698
DTLB PREFETCH  REQUESTED:          0  ISSUED:          0  USEFUL:          0  USELESS:          0
DTLB USEFUL LOAD PREFETCHES:          0 PREFETCH ISSUED TO LOWER LEVEL:          0  ACCURACY: -nan
DTLB TIMELY PREFETCHES:          0 LATE PREFETCHES: 0 DROPPED PREFETCHES: 0
DTLB PREFETCHES SAME FILL-ORIGIN LEVEL: 0 DIFFERENT FILL-ORIGIN LEVEL: 0
DTLB AVERAGE MISS LATENCY: 29.2952 cycles
DTLB RQ	ACCESS:   19369989	FORWARD:          0	MERGED:    1116013	TO_CACHE:   18253976

STLB TOTAL     ACCESS:    1930774  HIT:    1827194  MISS:     103580  HIT %:    94.6353  MISS %:    5.36469   MPKI: 1.0358
STLB LOAD TRANSLATION ACCESS:     147698  HIT:     114270  MISS:      33428  HIT %:    77.3673  MISS %:    22.6327   MPKI: 0.33428
STLB TRANSLATION FROM L1D PREFETCHER ACCESS:    1783076  HIT:    1712924  MISS:      70152  HIT %:    96.0657  MISS %:    3.93432   MPKI: 0.70152
STLB PREFETCH  REQUESTED:          0  ISSUED:          0  USEFUL:      59572  USELESS:      10767
STLB USEFUL LOAD PREFETCHES:      59572 PREFETCH ISSUED TO LOWER LEVEL:          0  ACCURACY: inf
STLB TIMELY PREFETCHES:      59572 LATE PREFETCHES: 611 DROPPED PREFETCHES: 0
STLB PREFETCHES SAME FILL-ORIGIN LEVEL: 0 DIFFERENT FILL-ORIGIN LEVEL: 0
STLB AVERAGE MISS LATENCY: 81.9819 cycles
STLB RQ	ACCESS:    3133361	FORWARD:          0	MERGED:    1200992	TO_CACHE:    1932369

STLB Hit, L1D data hit: 0
STLB Hit, L2C data hit: 0
STLB Hit, LLC data hit: 0
STLB Hit, LLC data miss: 0
STLB STLB hints to L2: 0
L1D TOTAL     ACCESS:   21247864  HIT:   17634592  MISS:    3613272  HIT %:    82.9947  MISS %:    17.0053   MPKI: 36.1327
L1D LOAD      ACCESS:   15412263  HIT:   14258976  MISS:    1153287  HIT %:    92.5171  MISS %:    7.48292   MPKI: 11.5329
L1D RFO       ACCESS:    2930710  HIT:    2774009  MISS:     156701  HIT %:    94.6531  MISS %:    5.34686   MPKI: 1.56701
L1D PREFETCH  ACCESS:    2904891  HIT:     601607  MISS:    2303284  HIT %:    20.7101  MISS %:    79.2899   MPKI: 23.0328
AGUS PREFETCH L1 MISS: 0
L1D PREFETCH  REQUESTED:    6276355  ISSUED:    6008568  USEFUL:    1053548  USELESS:    1249527
L1D USEFUL LOAD PREFETCHES:    1053548 PREFETCH ISSUED TO LOWER LEVEL:    2340492  ACCURACY: 45.014
L1D TIMELY PREFETCHES:    1053548 LATE PREFETCHES: 37207 DROPPED PREFETCHES: 0
L1D PREFETCHES SAME FILL-ORIGIN LEVEL: 2340492 DIFFERENT FILL-ORIGIN LEVEL: 0
L1D AVERAGE MISS LATENCY: 121.623 cycles
L1D RQ	ACCESS:   23411203	FORWARD:          0	MERGED:    7651839	TO_CACHE:   15753391
L1D WQ	ACCESS:    3674122	FORWARD:       5974	MERGED:      57524	TO_CACHE:    3616598
L1D PQ	ACCESS:    3022905	FORWARD:          0	MERGED:      37241	TO_CACHE:    2985663

L1D UNIQUE REGIONS ACCESSED: 0
L1D REGIONS CONFLICTS: 0
L1D Cross Page Prefetch Requests: 1603326
L1D Same Page Prefetch Requests: 3470949
L1D ROI Sum of L1D PQ occupancy: 64019918
L1D PREFETCHES PUSHED FROM L2C: 0
L1I TOTAL     ACCESS:   21401540  HIT:   21401527  MISS:         13  HIT %:    99.9999  MISS %: 6.07433e-05   MPKI: 0.00013
L1I LOAD      ACCESS:   21401540  HIT:   21401527  MISS:         13  HIT %:    99.9999  MISS %: 6.07433e-05   MPKI: 0.00013
L1I PREFETCH  REQUESTED:          0  ISSUED:          0  USEFUL:          0  USELESS:          0
L1I USEFUL LOAD PREFETCHES:          0 PREFETCH ISSUED TO LOWER LEVEL:          0  ACCURACY: -nan
L1I TIMELY PREFETCHES:          0 LATE PREFETCHES: 0 DROPPED PREFETCHES: 0
L1I PREFETCHES SAME FILL-ORIGIN LEVEL: 0 DIFFERENT FILL-ORIGIN LEVEL: 0
L1I AVERAGE MISS LATENCY: 197.615 cycles
L1I RQ	ACCESS:   33861571	FORWARD:          0	MERGED:   12460029	TO_CACHE:   21401542

BTB TOTAL     ACCESS:   19816992  HIT:   19816688  MISS:        304  HIT %:    99.9985  MISS %: 0.00153404   MPKI: 0.00304
BTB BRANCH_DIRECT_JUMP	ACCESS:      38942  HIT:      38896  MISS:         46
BTB BRANCH_INDIRECT	ACCESS:          2  HIT:          1  MISS:          1
BTB BRANCH_CONDITIONAL	ACCESS:   19777627  HIT:   19777524  MISS:        103
BTB BRANCH_DIRECT_CALL	ACCESS:        204  HIT:        160  MISS:         44
BTB BRANCH_INDIRECT_CALL	ACCESS:          6  HIT:          3  MISS:          3
BTB BRANCH_RETURN	ACCESS:        211  HIT:        104  MISS:        107
BTB BRANCH_OTHER ACCESS:          0  HIT:          0  MISS:          0

L2C TOTAL     ACCESS:    4037464  HIT:    1782184  MISS:    2255280  HIT %:    44.1412  MISS %:    55.8588   MPKI: 22.5528
L2C LOAD      ACCESS:    1116093  HIT:     546429  MISS:     569664  HIT %:    48.9591  MISS %:    51.0409   MPKI: 5.69664
L2C DATA LOAD MPKI: 5.69651
L2C INSTRUCTION LOAD MPKI: 0.00013
L2C RFO       ACCESS:     156701  HIT:       5051  MISS:     151650  HIT %:    3.22334  MISS %:    96.7767   MPKI: 1.5165
L2C PREFETCH  ACCESS:    2340490  HIT:     830097  MISS:    1510393  HIT %:    35.4668  MISS %:    64.5332   MPKI: 15.1039
AGUS PREFETCH L1 MISS: 0
L2C DATA PREFETCH MPKI: 15.1039
L2C INSTRUCTION PREFETCH MPKI: 0
L2C WRITEBACK ACCESS:     320073  HIT:     320065  MISS:          8  HIT %:    99.9975  MISS %: 0.00249943   MPKI: 8e-05
L2C LOAD TRANSLATION ACCESS:      33132  HIT:      25696  MISS:       7436  HIT %:    77.5564  MISS %:    22.4436   MPKI: 0.07436
L2C TRANSLATION FROM L1D PREFETCHER ACCESS:      70975  HIT:      54846  MISS:      16129  HIT %:    77.2751  MISS %:    22.7249   MPKI: 0.16129
L2C PREFETCH  REQUESTED:          0  ISSUED:          0  USEFUL:      44781  USELESS:    1482393
L2C USEFUL LOAD PREFETCHES:      44781 PREFETCH ISSUED TO LOWER LEVEL:    1510393  ACCURACY: 2.96486
L2C TIMELY PREFETCHES:      44781 LATE PREFETCHES: 0 DROPPED PREFETCHES: 0
L2C PREFETCHES SAME FILL-ORIGIN LEVEL: 0 DIFFERENT FILL-ORIGIN LEVEL: 0
L2C AVERAGE MISS LATENCY: 171.986 cycles
L2C RQ	ACCESS:    1376902	FORWARD:          0	MERGED:          0	TO_CACHE:    1376902
L2C WQ	ACCESS:     320073	FORWARD:          1	MERGED:          0	TO_CACHE:     320073
L2C PQ	ACCESS:    2340492	FORWARD:          0	MERGED:          0	TO_CACHE:    2340491

L2C Instructions Evicting Data 13
L2C Translations Evicting Data 23263
L2C Data Evicting Data 2208376
L2C Instructions Evicting Instructions 0
L2C Translations Evicting Instructions 0
L2C Data Evicting Instructions 16
L2C Instructions Evicting Translations 0
L2C Translations Evicting Translations 302
L2C Data Evicting Translations 23302
L2C Dense regions hint from L2: 0
PSCL5 TOTAL     ACCESS:     103580  HIT:     103580  MISS:          0  HIT %:        100  MISS %:          0   MPKI: 0
PSCL5 LOAD TRANSLATION ACCESS:      32817  HIT:      32817  MISS:          0  HIT %:        100  MISS %:          0   MPKI: 0
PSCL5 TRANSLATION FROM L1D PREFETCHER ACCESS:      70763  HIT:      70763  MISS:          0  HIT %:        100  MISS %:          0   MPKI: 0
PSCL5 PREFETCH  REQUESTED:          0  ISSUED:          0  USEFUL:          0  USELESS:          0
PSCL5 USEFUL LOAD PREFETCHES:          0 PREFETCH ISSUED TO LOWER LEVEL:          0  ACCURACY: -nan
PSCL5 TIMELY PREFETCHES:          0 LATE PREFETCHES: 0 DROPPED PREFETCHES: 0
PSCL5 PREFETCHES SAME FILL-ORIGIN LEVEL: 0 DIFFERENT FILL-ORIGIN LEVEL: 0

PSCL4 TOTAL     ACCESS:     103580  HIT:     103580  MISS:          0  HIT %:        100  MISS %:          0   MPKI: 0
PSCL4 LOAD TRANSLATION ACCESS:      32817  HIT:      32817  MISS:          0  HIT %:        100  MISS %:          0   MPKI: 0
PSCL4 TRANSLATION FROM L1D PREFETCHER ACCESS:      70763  HIT:      70763  MISS:          0  HIT %:        100  MISS %:          0   MPKI: 0
PSCL4 PREFETCH  REQUESTED:          0  ISSUED:          0  USEFUL:          0  USELESS:          0
PSCL4 USEFUL LOAD PREFETCHES:          0 PREFETCH ISSUED TO LOWER LEVEL:          0  ACCURACY: -nan
PSCL4 TIMELY PREFETCHES:          0 LATE PREFETCHES: 0 DROPPED PREFETCHES: 0
PSCL4 PREFETCHES SAME FILL-ORIGIN LEVEL: 0 DIFFERENT FILL-ORIGIN LEVEL: 0

PSCL3 TOTAL     ACCESS:     103580  HIT:     103580  MISS:          0  HIT %:        100  MISS %:          0   MPKI: 0
PSCL3 LOAD TRANSLATION ACCESS:      32817  HIT:      32817  MISS:          0  HIT %:        100  MISS %:          0   MPKI: 0
PSCL3 TRANSLATION FROM L1D PREFETCHER ACCESS:      70763  HIT:      70763  MISS:          0  HIT %:        100  MISS %:          0   MPKI: 0
PSCL3 PREFETCH  REQUESTED:          0  ISSUED:          0  USEFUL:          0  USELESS:          0
PSCL3 USEFUL LOAD PREFETCHES:          0 PREFETCH ISSUED TO LOWER LEVEL:          0  ACCURACY: -nan
PSCL3 TIMELY PREFETCHES:          0 LATE PREFETCHES: 0 DROPPED PREFETCHES: 0
PSCL3 PREFETCHES SAME FILL-ORIGIN LEVEL: 0 DIFFERENT FILL-ORIGIN LEVEL: 0

PSCL2 TOTAL     ACCESS:     103580  HIT:     103053  MISS:        527  HIT %:    99.4912  MISS %:   0.508785   MPKI: 0.00527
PSCL2 LOAD TRANSLATION ACCESS:      33029  HIT:      32502  MISS:        527  HIT %:    98.4044  MISS %:    1.59557   MPKI: 0.00527
PSCL2 TRANSLATION FROM L1D PREFETCHER ACCESS:      70551  HIT:      70551  MISS:          0  HIT %:        100  MISS %:          0   MPKI: 0
PSCL2 PREFETCH  REQUESTED:          0  ISSUED:          0  USEFUL:          0  USELESS:          0
PSCL2 USEFUL LOAD PREFETCHES:          0 PREFETCH ISSUED TO LOWER LEVEL:          0  ACCURACY: -nan
PSCL2 TIMELY PREFETCHES:          0 LATE PREFETCHES: 0 DROPPED PREFETCHES: 0
PSCL2 PREFETCHES SAME FILL-ORIGIN LEVEL: 0 DIFFERENT FILL-ORIGIN LEVEL: 0

LLC TOTAL     ACCESS:    2564105  HIT:     424779  MISS:    2139326  HIT %:    16.5664  MISS %:    83.4336   MPKI: 21.3933
LLC LOAD      ACCESS:     569664  HIT:      35974  MISS:     533690  HIT %:    6.31495  MISS %:     93.685   MPKI: 5.3369
LLC RFO       ACCESS:     151650  HIT:       3666  MISS:     147984  HIT %:    2.41741  MISS %:    97.5826   MPKI: 1.47984
LLC PREFETCH  ACCESS:    1510393  HIT:      72693  MISS:    1437700  HIT %:    4.81285  MISS %:    95.1871   MPKI: 14.377
AGUS PREFETCH L1 MISS: 0
LLC WRITEBACK ACCESS:     308833  HIT:     306083  MISS:       2750  HIT %:    99.1096  MISS %:   0.890449   MPKI: 0.0275
LLC LOAD TRANSLATION ACCESS:       7436  HIT:       1562  MISS:       5874  HIT %:    21.0059  MISS %:    78.9941   MPKI: 0.05874
LLC TRANSLATION FROM L1D PREFETCHER ACCESS:      16129  HIT:       4801  MISS:      11328  HIT %:    29.7663  MISS %:    70.2337   MPKI: 0.11328
LLC PREFETCH  REQUESTED:          0  ISSUED:          0  USEFUL:      15158  USELESS:    1437492
LLC USEFUL LOAD PREFETCHES:      15158 PREFETCH ISSUED TO LOWER LEVEL:    1437700  ACCURACY: 1.05432
LLC TIMELY PREFETCHES:      15158 LATE PREFETCHES: 0 DROPPED PREFETCHES: 0
LLC PREFETCHES SAME FILL-ORIGIN LEVEL: 0 DIFFERENT FILL-ORIGIN LEVEL: 0
LLC AVERAGE MISS LATENCY: 149.672 cycles
LLC RQ	ACCESS:     744879	FORWARD:          0	MERGED:          0	TO_CACHE:     744879
LLC WQ	ACCESS:     308833	FORWARD:          0	MERGED:          0	TO_CACHE:     308833
LLC PQ	ACCESS:    1510393	FORWARD:          0	MERGED:          0	TO_CACHE:    1510393

LLC Dense regions hint to LLC: 0

RAW hits: 75845
Loads Generated: 23487048
Loads sent to L1D: 23411203
Stores Generated: 3674122
Stores sent to L1D: 3674122
Major fault: 0 Minor fault: 27118
Allocated PAGES: 27118

stream: 
stream:times selected: 2053327
stream:pref_filled: 1468226
stream:pref_useful: 442621
stream:pref_late: 40384
stream:misses: 401399
stream:misses_by_poll: 0

CS: 
CS:times selected: 81865
CS:pref_filled: 160993
CS:pref_useful: 136152
CS:pref_late: 1335
CS:misses: 134675
CS:misses_by_poll: 53

CPLX: 
CPLX:times selected: 1957834
CPLX:pref_filled: 84180
CPLX:pref_useful: 38128
CPLX:pref_late: 652
CPLX:misses: 1873572
CPLX:misses_by_poll: 6

NL_L1: 
NL:times selected: 6510
NL:pref_filled: 4907
NL:pref_useful: 1542
NL:pref_late: 76
NL:misses: 6798
NL:misses_by_poll: 0

total selections: 4099536
total_filled: 2303284
total_useful: 1053548
total_late: 53196
total_polluted: 59
total_misses_after_warmup: 1494415
conflicts: 19775

test: 902123
ISB Prefetcher final stats
Training Unit Size: 28
Addr table size: 477441 477443


Triggers: 2053328
No Prediction: 634744 30.9129
Stream end: 1246341
No translation: 1266199393 61665.7
Predictions: 2673932 130.224


Stream divergence: 518630 25.258
Stream divergence -- new stream: 0

DRAM Statistics
 CHANNEL 0
 RQ ROW_BUFFER_HIT:    1087888  ROW_BUFFER_MISS:    1048656
 DBUS_CONGESTED:        283
 WQ ROW_BUFFER_HIT:      48771  ROW_BUFFER_MISS:     246061  FULL:          0

 AVG_CONGESTED_CYCLE: 4
 All warmup complete: 2
Channel 0 Bank busy for read cycles: 0
Channel 0 Bank busy for write cycles: 0
Channel 0
Rank 0
0banks busy for read cycles: 184395648
0banks busy for write cycles: 139072
1banks busy for read cycles: 38917689
1banks busy for write cycles: 17327671
2banks busy for read cycles: 16080944
2banks busy for write cycles: 4515601
3banks busy for read cycles: 8800169
3banks busy for write cycles: 1753673
4banks busy for read cycles: 6698774
4banks busy for write cycles: 817481
5banks busy for read cycles: 5989621
5banks busy for write cycles: 481682
6banks busy for read cycles: 5161391
6banks busy for write cycles: 410384
7banks busy for read cycles: 2878140
7banks busy for write cycles: 360768
8banks busy for read cycles: 829001
8banks busy for write cycles: 1041774

CPU 0 Branch Prediction Accuracy: 86.1281% MPKI: 30.6762 Average ROB Occupancy at Mispredict: 7.54974
Branch types
NOT_BRANCH: 77886091 77.8861%
BRANCH_DIRECT_JUMP: 38942 0.038942%
BRANCH_INDIRECT: 2 2e-06%
BRANCH_CONDITIONAL: 22074556 22.0746%
BRANCH_DIRECT_CALL: 204 0.000204%
BRANCH_INDIRECT_CALL: 6 6e-06%
BRANCH_RETURN: 211 0.000211%
BRANCH_OTHER: 0 0%

DRAM PAGES: 1048576
Allocated PAGES: 27118
