
*** ChampSim Multicore Out-of-Order Simulator ***

Warmup Instructions: 50000000
Simulation Instructions: 50000000
Number of CPUs: 1
LLC sets: 2048
LLC ways: 16
Off-chip DRAM Size: 4096 MB Channels: 1 Width: 64-bit Data Rate: 6400 MT/s
CPU 0 runs ./traces/GAP/SUBSET/cc-5.trace.gz
.gz
CPU 0 Bimodal branch predictor
BTB has LRU replacement policy
ITLB has LRU replacement policy
DTLB has LRU replacement policy
STLB has LRU replacement policy
L1I has LRU replacement policy
L1D has LRU replacement policy
L2C has LRU replacement policy
LLC has LRU replacement policy
Heartbeat CPU 0 instructions: 10000002 cycles: 3086395 heartbeat IPC: 3.24003 cumulative IPC: 3.24003 (Simulation time: 0 hr 0 min 25 sec) 
Heartbeat CPU 0 instructions: 20000000 cycles: 6151859 heartbeat IPC: 3.26215 cumulative IPC: 3.25105 (Simulation time: 0 hr 0 min 53 sec) 
Heartbeat CPU 0 instructions: 30000002 cycles: 9226476 heartbeat IPC: 3.25244 cumulative IPC: 3.25151 (Simulation time: 0 hr 1 min 20 sec) 
Heartbeat CPU 0 instructions: 40000000 cycles: 12304588 heartbeat IPC: 3.24874 cumulative IPC: 3.25082 (Simulation time: 0 hr 1 min 47 sec) 
Heartbeat CPU 0 instructions: 50000000 cycles: 15383955 heartbeat IPC: 3.24742 cumulative IPC: 3.25014 (Simulation time: 0 hr 2 min 14 sec) 

Warmup complete CPU 0 instructions: 50000004 cycles: 15383956 (Simulation time: 0 hr 2 min 14 sec) 

Heartbeat CPU 0 instructions: 60000000 cycles: 63453598 heartbeat IPC: 0.208032 cumulative IPC: 0.208031 (Simulation time: 0 hr 3 min 2 sec) 
Heartbeat CPU 0 instructions: 70000002 cycles: 109526143 heartbeat IPC: 0.217049 cumulative IPC: 0.212445 (Simulation time: 0 hr 3 min 50 sec) 
Heartbeat CPU 0 instructions: 80000000 cycles: 155997076 heartbeat IPC: 0.215188 cumulative IPC: 0.213351 (Simulation time: 0 hr 4 min 37 sec) 
Heartbeat CPU 0 instructions: 90000000 cycles: 203255733 heartbeat IPC: 0.211601 cumulative IPC: 0.212911 (Simulation time: 0 hr 5 min 25 sec) 
Heartbeat CPU 0 instructions: 100000000 cycles: 249136937 heartbeat IPC: 0.217954 cumulative IPC: 0.213901 (Simulation time: 0 hr 6 min 13 sec) 
Finished CPU 0 instructions: 50000000 cycles: 233753008 cumulative IPC: 0.213901 (Simulation time: 0 hr 6 min 13 sec) 

ChampSim completed all CPUs

Region of Interest Statistics

CPU 0 cumulative IPC: 0.213901 instructions: 50000000 cycles: 233753008
ITLB TOTAL     ACCESS:    7782548  HIT:    7782548  MISS:          0  HIT %:        100  MISS %:          0   MPKI: 0
ITLB LOAD TRANSLATION ACCESS:    7782548  HIT:    7782548  MISS:          0  HIT %:        100  MISS %:          0   MPKI: 0
ITLB PREFETCH  REQUESTED:          0  ISSUED:          0  USEFUL:          0  USELESS:          0
ITLB USEFUL LOAD PREFETCHES:          0 PREFETCH ISSUED TO LOWER LEVEL:          0  ACCURACY: -nan
ITLB TIMELY PREFETCHES:          0 LATE PREFETCHES: 0 DROPPED PREFETCHES: 0
ITLB PREFETCHES SAME FILL-ORIGIN LEVEL: 0 DIFFERENT FILL-ORIGIN LEVEL: 0
ITLB AVERAGE MISS LATENCY: -nan cycles
ITLB RQ	ACCESS:    7891053	FORWARD:          0	MERGED:     108506	TO_CACHE:    7782547

DTLB TOTAL     ACCESS:    9567446  HIT:    7182744  MISS:    2384702  HIT %:    75.0748  MISS %:    24.9252   MPKI: 47.694
DTLB LOAD TRANSLATION ACCESS:    9567446  HIT:    7182744  MISS:    2384702  HIT %:    75.0748  MISS %:    24.9252   MPKI: 47.694
DTLB PREFETCH  REQUESTED:          0  ISSUED:          0  USEFUL:          0  USELESS:          0
DTLB USEFUL LOAD PREFETCHES:          0 PREFETCH ISSUED TO LOWER LEVEL:          0  ACCURACY: -nan
DTLB TIMELY PREFETCHES:          0 LATE PREFETCHES: 0 DROPPED PREFETCHES: 0
DTLB PREFETCHES SAME FILL-ORIGIN LEVEL: 0 DIFFERENT FILL-ORIGIN LEVEL: 0
DTLB AVERAGE MISS LATENCY: 9.76281 cycles
DTLB RQ	ACCESS:   10178387	FORWARD:          0	MERGED:     596536	TO_CACHE:    9581851

STLB TOTAL     ACCESS:    2384702  HIT:    2381157  MISS:       3545  HIT %:    99.8513  MISS %:   0.148656   MPKI: 0.0709
STLB LOAD TRANSLATION ACCESS:    2384702  HIT:    2381157  MISS:       3545  HIT %:    99.8513  MISS %:   0.148656   MPKI: 0.0709
STLB PREFETCH  REQUESTED:          0  ISSUED:          0  USEFUL:          0  USELESS:          0
STLB USEFUL LOAD PREFETCHES:          0 PREFETCH ISSUED TO LOWER LEVEL:          0  ACCURACY: -nan
STLB TIMELY PREFETCHES:          0 LATE PREFETCHES: 0 DROPPED PREFETCHES: 0
STLB PREFETCHES SAME FILL-ORIGIN LEVEL: 0 DIFFERENT FILL-ORIGIN LEVEL: 0
STLB AVERAGE MISS LATENCY: 138.523 cycles
STLB RQ	ACCESS:    2384702	FORWARD:          0	MERGED:          0	TO_CACHE:    2384702

STLB Hit, L1D data hit: 0
STLB Hit, L2C data hit: 0
STLB Hit, LLC data hit: 0
STLB Hit, LLC data miss: 0
STLB STLB hints to L2: 0
L1D TOTAL     ACCESS:    9908488  HIT:    6270269  MISS:    3638219  HIT %:    63.2818  MISS %:    36.7182   MPKI: 72.7644
L1D LOAD      ACCESS:    9796670  HIT:    6158451  MISS:    3638219  HIT %:    62.8627  MISS %:    37.1373   MPKI: 72.7644
L1D RFO       ACCESS:     111818  HIT:     111818  MISS:          0  HIT %:        100  MISS %:          0   MPKI: 0
L1D PREFETCH  REQUESTED:          0  ISSUED:          0  USEFUL:          0  USELESS:          0
L1D USEFUL LOAD PREFETCHES:          0 PREFETCH ISSUED TO LOWER LEVEL:          0  ACCURACY: -nan
L1D TIMELY PREFETCHES:          0 LATE PREFETCHES: 0 DROPPED PREFETCHES: 0
L1D PREFETCHES SAME FILL-ORIGIN LEVEL: 0 DIFFERENT FILL-ORIGIN LEVEL: 0
L1D AVERAGE MISS LATENCY: 84.9913 cycles
L1D RQ	ACCESS:   13505535	FORWARD:          0	MERGED:    3435516	TO_CACHE:   10066569
L1D WQ	ACCESS:     111818	FORWARD:       3450	MERGED:          0	TO_CACHE:     111818

L1D UNIQUE REGIONS ACCESSED: 0
L1D REGIONS CONFLICTS: 0
L1D Cross Page Prefetch Requests: 0
L1D Same Page Prefetch Requests: 0
L1D ROI Sum of L1D PQ occupancy: 0
L1D PREFETCHES PUSHED FROM L2C: 0
L1I TOTAL     ACCESS:    7891054  HIT:    7891054  MISS:          0  HIT %:        100  MISS %:          0   MPKI: 0
L1I LOAD      ACCESS:    7891054  HIT:    7891054  MISS:          0  HIT %:        100  MISS %:          0   MPKI: 0
L1I PREFETCH  REQUESTED:          0  ISSUED:          0  USEFUL:          0  USELESS:          0
L1I USEFUL LOAD PREFETCHES:          0 PREFETCH ISSUED TO LOWER LEVEL:          0  ACCURACY: -nan
L1I TIMELY PREFETCHES:          0 LATE PREFETCHES: 0 DROPPED PREFETCHES: 0
L1I PREFETCHES SAME FILL-ORIGIN LEVEL: 0 DIFFERENT FILL-ORIGIN LEVEL: 0
L1I AVERAGE MISS LATENCY: -nan cycles
L1I RQ	ACCESS:   13125631	FORWARD:          0	MERGED:    5234578	TO_CACHE:    7891053

BTB TOTAL     ACCESS:    9964188  HIT:    9964183  MISS:          5  HIT %:    99.9999  MISS %: 5.01797e-05   MPKI: 0.0001
BTB BRANCH_DIRECT_JUMP	ACCESS:          0  HIT:          0  MISS:          0
BTB BRANCH_INDIRECT	ACCESS:          0  HIT:          0  MISS:          0
BTB BRANCH_CONDITIONAL	ACCESS:    9964188  HIT:    9964183  MISS:          5
BTB BRANCH_DIRECT_CALL	ACCESS:          0  HIT:          0  MISS:          0
BTB BRANCH_INDIRECT_CALL	ACCESS:          0  HIT:          0  MISS:          0
BTB BRANCH_RETURN	ACCESS:          0  HIT:          0  MISS:          0
BTB BRANCH_OTHER ACCESS:          0  HIT:          0  MISS:          0

L2C TOTAL     ACCESS:    3731734  HIT:    1217995  MISS:    2513739  HIT %:    32.6388  MISS %:    67.3612   MPKI: 50.2748
L2C LOAD      ACCESS:    3638217  HIT:    1125138  MISS:    2513079  HIT %:    30.9255  MISS %:    69.0745   MPKI: 50.2616
L2C DATA LOAD MPKI: 50.2616
L2C INSTRUCTION LOAD MPKI: 0
L2C WRITEBACK ACCESS:      89972  HIT:      89938  MISS:         34  HIT %:    99.9622  MISS %:  0.0377895   MPKI: 0.00068
L2C LOAD TRANSLATION ACCESS:       3545  HIT:       2919  MISS:        626  HIT %:    82.3413  MISS %:    17.6587   MPKI: 0.01252
L2C PREFETCH  REQUESTED:          0  ISSUED:          0  USEFUL:          0  USELESS:          0
L2C USEFUL LOAD PREFETCHES:          0 PREFETCH ISSUED TO LOWER LEVEL:          0  ACCURACY: -nan
L2C TIMELY PREFETCHES:          0 LATE PREFETCHES: 0 DROPPED PREFETCHES: 0
L2C PREFETCHES SAME FILL-ORIGIN LEVEL: 0 DIFFERENT FILL-ORIGIN LEVEL: 0
L2C AVERAGE MISS LATENCY: 100.98 cycles
L2C RQ	ACCESS:    3641762	FORWARD:          0	MERGED:          0	TO_CACHE:    3641762
L2C WQ	ACCESS:      89972	FORWARD:          0	MERGED:          0	TO_CACHE:      89972

L2C Instructions Evicting Data 0
L2C Translations Evicting Data 626
L2C Data Evicting Data 2512455
L2C Instructions Evicting Instructions 0
L2C Translations Evicting Instructions 0
L2C Data Evicting Instructions 0
L2C Instructions Evicting Translations 0
L2C Translations Evicting Translations 0
L2C Data Evicting Translations 624
L2C Dense regions hint from L2: 0
PSCL5 TOTAL     ACCESS:       3545  HIT:       3545  MISS:          0  HIT %:        100  MISS %:          0   MPKI: 0
PSCL5 LOAD TRANSLATION ACCESS:       3545  HIT:       3545  MISS:          0  HIT %:        100  MISS %:          0   MPKI: 0
PSCL5 PREFETCH  REQUESTED:          0  ISSUED:          0  USEFUL:          0  USELESS:          0
PSCL5 USEFUL LOAD PREFETCHES:          0 PREFETCH ISSUED TO LOWER LEVEL:          0  ACCURACY: -nan
PSCL5 TIMELY PREFETCHES:          0 LATE PREFETCHES: 0 DROPPED PREFETCHES: 0
PSCL5 PREFETCHES SAME FILL-ORIGIN LEVEL: 0 DIFFERENT FILL-ORIGIN LEVEL: 0

PSCL4 TOTAL     ACCESS:       3545  HIT:       3545  MISS:          0  HIT %:        100  MISS %:          0   MPKI: 0
PSCL4 LOAD TRANSLATION ACCESS:       3545  HIT:       3545  MISS:          0  HIT %:        100  MISS %:          0   MPKI: 0
PSCL4 PREFETCH  REQUESTED:          0  ISSUED:          0  USEFUL:          0  USELESS:          0
PSCL4 USEFUL LOAD PREFETCHES:          0 PREFETCH ISSUED TO LOWER LEVEL:          0  ACCURACY: -nan
PSCL4 TIMELY PREFETCHES:          0 LATE PREFETCHES: 0 DROPPED PREFETCHES: 0
PSCL4 PREFETCHES SAME FILL-ORIGIN LEVEL: 0 DIFFERENT FILL-ORIGIN LEVEL: 0

PSCL3 TOTAL     ACCESS:       3545  HIT:       3545  MISS:          0  HIT %:        100  MISS %:          0   MPKI: 0
PSCL3 LOAD TRANSLATION ACCESS:       3545  HIT:       3545  MISS:          0  HIT %:        100  MISS %:          0   MPKI: 0
PSCL3 PREFETCH  REQUESTED:          0  ISSUED:          0  USEFUL:          0  USELESS:          0
PSCL3 USEFUL LOAD PREFETCHES:          0 PREFETCH ISSUED TO LOWER LEVEL:          0  ACCURACY: -nan
PSCL3 TIMELY PREFETCHES:          0 LATE PREFETCHES: 0 DROPPED PREFETCHES: 0
PSCL3 PREFETCHES SAME FILL-ORIGIN LEVEL: 0 DIFFERENT FILL-ORIGIN LEVEL: 0

PSCL2 TOTAL     ACCESS:       3545  HIT:       3538  MISS:          7  HIT %:    99.8025  MISS %:   0.197461   MPKI: 0.00014
PSCL2 LOAD TRANSLATION ACCESS:       3545  HIT:       3538  MISS:          7  HIT %:    99.8025  MISS %:   0.197461   MPKI: 0.00014
PSCL2 PREFETCH  REQUESTED:          0  ISSUED:          0  USEFUL:          0  USELESS:          0
PSCL2 USEFUL LOAD PREFETCHES:          0 PREFETCH ISSUED TO LOWER LEVEL:          0  ACCURACY: -nan
PSCL2 TIMELY PREFETCHES:          0 LATE PREFETCHES: 0 DROPPED PREFETCHES: 0
PSCL2 PREFETCHES SAME FILL-ORIGIN LEVEL: 0 DIFFERENT FILL-ORIGIN LEVEL: 0

LLC TOTAL     ACCESS:    2603504  HIT:    1499138  MISS:    1104366  HIT %:    57.5816  MISS %:    42.4184   MPKI: 22.0873
LLC LOAD      ACCESS:    2513079  HIT:    1409380  MISS:    1103699  HIT %:    56.0818  MISS %:    43.9182   MPKI: 22.074
LLC WRITEBACK ACCESS:      89799  HIT:      89586  MISS:        213  HIT %:    99.7628  MISS %:   0.237196   MPKI: 0.00426
LLC LOAD TRANSLATION ACCESS:        626  HIT:        172  MISS:        454  HIT %:     27.476  MISS %:     72.524   MPKI: 0.00908
LLC PREFETCH  REQUESTED:          0  ISSUED:          0  USEFUL:          0  USELESS:          0
LLC USEFUL LOAD PREFETCHES:          0 PREFETCH ISSUED TO LOWER LEVEL:          0  ACCURACY: -nan
LLC TIMELY PREFETCHES:          0 LATE PREFETCHES: 0 DROPPED PREFETCHES: 0
LLC PREFETCHES SAME FILL-ORIGIN LEVEL: 0 DIFFERENT FILL-ORIGIN LEVEL: 0
LLC AVERAGE MISS LATENCY: 161.482 cycles
LLC RQ	ACCESS:    2513705	FORWARD:          0	MERGED:          0	TO_CACHE:    2513705
LLC WQ	ACCESS:      89799	FORWARD:          0	MERGED:          0	TO_CACHE:      89799

LLC Dense regions hint to LLC: 0

RAW hits: 18037
Loads Generated: 13523578
Loads sent to L1D: 13505535
Stores Generated: 111818
Stores sent to L1D: 111818
Major fault: 0 Minor fault: 7970
Allocated PAGES: 7970

DRAM Statistics
 CHANNEL 0
 RQ ROW_BUFFER_HIT:     186388  ROW_BUFFER_MISS:     917760
 DBUS_CONGESTED:         88
 WQ ROW_BUFFER_HIT:      35773  ROW_BUFFER_MISS:      51728  FULL:          0

 AVG_CONGESTED_CYCLE: 4
 All warmup complete: 2
Channel 0 Bank busy for read cycles: 0
Channel 0 Bank busy for write cycles: 0
Channel 0
Rank 0
0banks busy for read cycles: 112595644
0banks busy for write cycles: 74168
1banks busy for read cycles: 74092979
1banks busy for write cycles: 14314575
2banks busy for read cycles: 22385106
2banks busy for write cycles: 1445629
3banks busy for read cycles: 6902130
3banks busy for write cycles: 142108
4banks busy for read cycles: 1553892
4banks busy for write cycles: 10520
5banks busy for read cycles: 215748
5banks busy for write cycles: 650
6banks busy for read cycles: 19018
6banks busy for write cycles: 0
7banks busy for read cycles: 842
7banks busy for write cycles: 0
8banks busy for read cycles: 0
8banks busy for write cycles: 0

CPU 0 Branch Prediction Accuracy: 92.4788% MPKI: 15.0538 Average ROB Occupancy at Mispredict: 35.583
Branch types
NOT_BRANCH: 39992158 79.9843%
BRANCH_DIRECT_JUMP: 0 0%
BRANCH_INDIRECT: 0 0%
BRANCH_CONDITIONAL: 10007642 20.0153%
BRANCH_DIRECT_CALL: 0 0%
BRANCH_INDIRECT_CALL: 0 0%
BRANCH_RETURN: 0 0%
BRANCH_OTHER: 0 0%

DRAM PAGES: 1048576
Allocated PAGES: 7970
