
*** ChampSim Multicore Out-of-Order Simulator ***

Warmup Instructions: 50000000
Simulation Instructions: 100000000
Number of CPUs: 1
LLC sets: 2048
LLC ways: 16
Off-chip DRAM Size: 4096 MB Channels: 1 Width: 64-bit Data Rate: 6400 MT/s
CPU 0 runs ./traces/GAP/pr-5.trace.gz
.gz
CPU 0 Bimodal branch predictor
BTB has LRU replacement policy
ITLB has LRU replacement policy
DTLB has LRU replacement policy
STLB has LRU replacement policy
L1I has LRU replacement policy
L1D has LRU replacement policy
L2C has LRU replacement policy
LLC has LRU replacement policy
Heartbeat CPU 0 instructions: 10000003 cycles: 3333431 heartbeat IPC: 2.99991 cumulative IPC: 2.99991 (Simulation time: 0 hr 0 min 18 sec) 
Heartbeat CPU 0 instructions: 20000000 cycles: 9651889 heartbeat IPC: 1.58266 cumulative IPC: 2.07213 (Simulation time: 0 hr 0 min 53 sec) 
Heartbeat CPU 0 instructions: 30000000 cycles: 16461742 heartbeat IPC: 1.46846 cumulative IPC: 1.82241 (Simulation time: 0 hr 1 min 30 sec) 
Heartbeat CPU 0 instructions: 40000000 cycles: 23306106 heartbeat IPC: 1.46106 cumulative IPC: 1.71629 (Simulation time: 0 hr 2 min 8 sec) 
Heartbeat CPU 0 instructions: 50000003 cycles: 30148085 heartbeat IPC: 1.46157 cumulative IPC: 1.65848 (Simulation time: 0 hr 2 min 45 sec) 

Warmup complete CPU 0 instructions: 50000003 cycles: 30148085 (Simulation time: 0 hr 2 min 45 sec) 

Heartbeat CPU 0 instructions: 60000000 cycles: 213668584 heartbeat IPC: 0.0544898 cumulative IPC: 0.0544898 (Simulation time: 0 hr 5 min 25 sec) 
Heartbeat CPU 0 instructions: 70000002 cycles: 396865045 heartbeat IPC: 0.0545862 cumulative IPC: 0.054538 (Simulation time: 0 hr 8 min 4 sec) 
Heartbeat CPU 0 instructions: 80000000 cycles: 580240634 heartbeat IPC: 0.0545329 cumulative IPC: 0.0545363 (Simulation time: 0 hr 10 min 43 sec) 
Heartbeat CPU 0 instructions: 90000000 cycles: 764581943 heartbeat IPC: 0.0542472 cumulative IPC: 0.0544637 (Simulation time: 0 hr 13 min 23 sec) 
Heartbeat CPU 0 instructions: 100000000 cycles: 948247580 heartbeat IPC: 0.0544468 cumulative IPC: 0.0544603 (Simulation time: 0 hr 16 min 2 sec) 
Heartbeat CPU 0 instructions: 110000001 cycles: 1133007242 heartbeat IPC: 0.0541244 cumulative IPC: 0.054404 (Simulation time: 0 hr 18 min 41 sec) 
Heartbeat CPU 0 instructions: 120000000 cycles: 1316618146 heartbeat IPC: 0.054463 cumulative IPC: 0.0544125 (Simulation time: 0 hr 21 min 20 sec) 
Heartbeat CPU 0 instructions: 130000003 cycles: 1501328704 heartbeat IPC: 0.0541388 cumulative IPC: 0.0543781 (Simulation time: 0 hr 24 min 0 sec) 
Heartbeat CPU 0 instructions: 140000000 cycles: 1684980974 heartbeat IPC: 0.0544507 cumulative IPC: 0.0543862 (Simulation time: 0 hr 26 min 38 sec) 
Heartbeat CPU 0 instructions: 150000001 cycles: 1868877553 heartbeat IPC: 0.0543784 cumulative IPC: 0.0543854 (Simulation time: 0 hr 29 min 17 sec) 
Finished CPU 0 instructions: 100000003 cycles: 1838729530 cumulative IPC: 0.0543854 (Simulation time: 0 hr 29 min 17 sec) 

ChampSim completed all CPUs

Region of Interest Statistics

CPU 0 cumulative IPC: 0.0543854 instructions: 100000003 cycles: 1838729530
ITLB TOTAL     ACCESS:   31720765  HIT:   31720765  MISS:          0  HIT %:        100  MISS %:          0   MPKI: 0
ITLB LOAD TRANSLATION ACCESS:   31720765  HIT:   31720765  MISS:          0  HIT %:        100  MISS %:          0   MPKI: 0
ITLB PREFETCH  REQUESTED:          0  ISSUED:          0  USEFUL:          0  USELESS:          0
ITLB USEFUL LOAD PREFETCHES:          0 PREFETCH ISSUED TO LOWER LEVEL:          0  ACCURACY: -nan
ITLB TIMELY PREFETCHES:          0 LATE PREFETCHES: 0 DROPPED PREFETCHES: 0
ITLB PREFETCHES SAME FILL-ORIGIN LEVEL: 0 DIFFERENT FILL-ORIGIN LEVEL: 0
ITLB AVERAGE MISS LATENCY: -nan cycles
ITLB RQ	ACCESS:   32253021	FORWARD:          0	MERGED:     532257	TO_CACHE:   31720764

DTLB TOTAL     ACCESS:   31969009  HIT:   19833843  MISS:   12135166  HIT %:    62.0408  MISS %:    37.9592   MPKI: 121.352
DTLB LOAD TRANSLATION ACCESS:   31969009  HIT:   19833843  MISS:   12135166  HIT %:    62.0408  MISS %:    37.9592   MPKI: 121.352
DTLB PREFETCH  REQUESTED:          0  ISSUED:          0  USEFUL:          0  USELESS:          0
DTLB USEFUL LOAD PREFETCHES:          0 PREFETCH ISSUED TO LOWER LEVEL:          0  ACCURACY: -nan
DTLB TIMELY PREFETCHES:          0 LATE PREFETCHES: 0 DROPPED PREFETCHES: 0
DTLB PREFETCHES SAME FILL-ORIGIN LEVEL: 0 DIFFERENT FILL-ORIGIN LEVEL: 0
DTLB AVERAGE MISS LATENCY: 9.22095 cycles
DTLB RQ	ACCESS:   32287916	FORWARD:          0	MERGED:     314659	TO_CACHE:   31973257

STLB TOTAL     ACCESS:   12135165  HIT:   12115939  MISS:      19226  HIT %:    99.8416  MISS %:   0.158432   MPKI: 0.19226
STLB LOAD TRANSLATION ACCESS:   12135165  HIT:   12115939  MISS:      19226  HIT %:    99.8416  MISS %:   0.158432   MPKI: 0.19226
STLB PREFETCH  REQUESTED:          0  ISSUED:          0  USEFUL:          0  USELESS:          0
STLB USEFUL LOAD PREFETCHES:          0 PREFETCH ISSUED TO LOWER LEVEL:          0  ACCURACY: -nan
STLB TIMELY PREFETCHES:          0 LATE PREFETCHES: 0 DROPPED PREFETCHES: 0
STLB PREFETCHES SAME FILL-ORIGIN LEVEL: 0 DIFFERENT FILL-ORIGIN LEVEL: 0
STLB AVERAGE MISS LATENCY: 133.294 cycles
STLB RQ	ACCESS:   12135165	FORWARD:          0	MERGED:          0	TO_CACHE:   12135165

STLB Hit, L1D data hit: 0
STLB Hit, L2C data hit: 0
STLB Hit, LLC data hit: 0
STLB Hit, LLC data miss: 0
STLB STLB hints to L2: 0
L1D TOTAL     ACCESS:   30163052  HIT:   11994302  MISS:   18168750  HIT %:    39.7649  MISS %:    60.2351   MPKI: 181.687
L1D LOAD      ACCESS:   28970062  HIT:   10801312  MISS:   18168750  HIT %:    37.2844  MISS %:    62.7156   MPKI: 181.687
L1D RFO       ACCESS:    1192990  HIT:    1192990  MISS:          0  HIT %:        100  MISS %:          0   MPKI: 0
L1D PREFETCH  REQUESTED:          0  ISSUED:          0  USEFUL:          0  USELESS:          0
L1D USEFUL LOAD PREFETCHES:          0 PREFETCH ISSUED TO LOWER LEVEL:          0  ACCURACY: -nan
L1D TIMELY PREFETCHES:          0 LATE PREFETCHES: 0 DROPPED PREFETCHES: 0
L1D PREFETCHES SAME FILL-ORIGIN LEVEL: 0 DIFFERENT FILL-ORIGIN LEVEL: 0
L1D AVERAGE MISS LATENCY: 93.3649 cycles
L1D RQ	ACCESS:   39375942	FORWARD:          0	MERGED:    8281016	TO_CACHE:   31094926
L1D WQ	ACCESS:    1192990	FORWARD:          0	MERGED:          0	TO_CACHE:    1192990

L1D UNIQUE REGIONS ACCESSED: 0
L1D REGIONS CONFLICTS: 0
L1D Cross Page Prefetch Requests: 0
L1D Same Page Prefetch Requests: 0
L1D ROI Sum of L1D PQ occupancy: 0
L1D PREFETCHES PUSHED FROM L2C: 0
L1I TOTAL     ACCESS:   32253023  HIT:   32253023  MISS:          0  HIT %:        100  MISS %:          0   MPKI: 0
L1I LOAD      ACCESS:   32253023  HIT:   32253023  MISS:          0  HIT %:        100  MISS %:          0   MPKI: 0
L1I PREFETCH  REQUESTED:          0  ISSUED:          0  USEFUL:          0  USELESS:          0
L1I USEFUL LOAD PREFETCHES:          0 PREFETCH ISSUED TO LOWER LEVEL:          0  ACCURACY: -nan
L1I TIMELY PREFETCHES:          0 LATE PREFETCHES: 0 DROPPED PREFETCHES: 0
L1I PREFETCHES SAME FILL-ORIGIN LEVEL: 0 DIFFERENT FILL-ORIGIN LEVEL: 0
L1I AVERAGE MISS LATENCY: -nan cycles
L1I RQ	ACCESS:   49251495	FORWARD:          0	MERGED:   16998474	TO_CACHE:   32253021

BTB TOTAL     ACCESS:   19091477  HIT:   19091474  MISS:          3  HIT %:        100  MISS %: 1.57138e-05   MPKI: 3e-05
BTB BRANCH_DIRECT_JUMP	ACCESS:          0  HIT:          0  MISS:          0
BTB BRANCH_INDIRECT	ACCESS:          0  HIT:          0  MISS:          0
BTB BRANCH_CONDITIONAL	ACCESS:   19091477  HIT:   19091474  MISS:          3
BTB BRANCH_DIRECT_CALL	ACCESS:          0  HIT:          0  MISS:          0
BTB BRANCH_INDIRECT_CALL	ACCESS:          0  HIT:          0  MISS:          0
BTB BRANCH_RETURN	ACCESS:          0  HIT:          0  MISS:          0
BTB BRANCH_OTHER ACCESS:          0  HIT:          0  MISS:          0

L2C TOTAL     ACCESS:   18232713  HIT:    5026945  MISS:   13205768  HIT %:     27.571  MISS %:     72.429   MPKI: 132.058
L2C LOAD      ACCESS:   18168750  HIT:    4966553  MISS:   13202197  HIT %:    27.3357  MISS %:    72.6643   MPKI: 132.022
L2C DATA LOAD MPKI: 132.022
L2C INSTRUCTION LOAD MPKI: 0
L2C WRITEBACK ACCESS:      44732  HIT:      44666  MISS:         66  HIT %:    99.8525  MISS %:   0.147545   MPKI: 0.00066
L2C LOAD TRANSLATION ACCESS:      19231  HIT:      15726  MISS:       3505  HIT %:    81.7742  MISS %:    18.2258   MPKI: 0.03505
L2C PREFETCH  REQUESTED:          0  ISSUED:          0  USEFUL:          0  USELESS:          0
L2C USEFUL LOAD PREFETCHES:          0 PREFETCH ISSUED TO LOWER LEVEL:          0  ACCURACY: -nan
L2C TIMELY PREFETCHES:          0 LATE PREFETCHES: 0 DROPPED PREFETCHES: 0
L2C PREFETCHES SAME FILL-ORIGIN LEVEL: 0 DIFFERENT FILL-ORIGIN LEVEL: 0
L2C AVERAGE MISS LATENCY: 107.831 cycles
L2C RQ	ACCESS:   18187982	FORWARD:          0	MERGED:          0	TO_CACHE:   18187982
L2C WQ	ACCESS:      44732	FORWARD:          0	MERGED:          0	TO_CACHE:      44732

L2C Instructions Evicting Data 0
L2C Translations Evicting Data 3504
L2C Data Evicting Data 13198691
L2C Instructions Evicting Instructions 0
L2C Translations Evicting Instructions 0
L2C Data Evicting Instructions 0
L2C Instructions Evicting Translations 0
L2C Translations Evicting Translations 1
L2C Data Evicting Translations 3506
L2C Dense regions hint from L2: 0
PSCL5 TOTAL     ACCESS:      19226  HIT:      19226  MISS:          0  HIT %:        100  MISS %:          0   MPKI: 0
PSCL5 LOAD TRANSLATION ACCESS:      19226  HIT:      19226  MISS:          0  HIT %:        100  MISS %:          0   MPKI: 0
PSCL5 PREFETCH  REQUESTED:          0  ISSUED:          0  USEFUL:          0  USELESS:          0
PSCL5 USEFUL LOAD PREFETCHES:          0 PREFETCH ISSUED TO LOWER LEVEL:          0  ACCURACY: -nan
PSCL5 TIMELY PREFETCHES:          0 LATE PREFETCHES: 0 DROPPED PREFETCHES: 0
PSCL5 PREFETCHES SAME FILL-ORIGIN LEVEL: 0 DIFFERENT FILL-ORIGIN LEVEL: 0

PSCL4 TOTAL     ACCESS:      19226  HIT:      19226  MISS:          0  HIT %:        100  MISS %:          0   MPKI: 0
PSCL4 LOAD TRANSLATION ACCESS:      19226  HIT:      19226  MISS:          0  HIT %:        100  MISS %:          0   MPKI: 0
PSCL4 PREFETCH  REQUESTED:          0  ISSUED:          0  USEFUL:          0  USELESS:          0
PSCL4 USEFUL LOAD PREFETCHES:          0 PREFETCH ISSUED TO LOWER LEVEL:          0  ACCURACY: -nan
PSCL4 TIMELY PREFETCHES:          0 LATE PREFETCHES: 0 DROPPED PREFETCHES: 0
PSCL4 PREFETCHES SAME FILL-ORIGIN LEVEL: 0 DIFFERENT FILL-ORIGIN LEVEL: 0

PSCL3 TOTAL     ACCESS:      19226  HIT:      19226  MISS:          0  HIT %:        100  MISS %:          0   MPKI: 0
PSCL3 LOAD TRANSLATION ACCESS:      19226  HIT:      19226  MISS:          0  HIT %:        100  MISS %:          0   MPKI: 0
PSCL3 PREFETCH  REQUESTED:          0  ISSUED:          0  USEFUL:          0  USELESS:          0
PSCL3 USEFUL LOAD PREFETCHES:          0 PREFETCH ISSUED TO LOWER LEVEL:          0  ACCURACY: -nan
PSCL3 TIMELY PREFETCHES:          0 LATE PREFETCHES: 0 DROPPED PREFETCHES: 0
PSCL3 PREFETCHES SAME FILL-ORIGIN LEVEL: 0 DIFFERENT FILL-ORIGIN LEVEL: 0

PSCL2 TOTAL     ACCESS:      19226  HIT:      19186  MISS:         40  HIT %:    99.7919  MISS %:   0.208052   MPKI: 0.0004
PSCL2 LOAD TRANSLATION ACCESS:      19226  HIT:      19186  MISS:         40  HIT %:    99.7919  MISS %:   0.208052   MPKI: 0.0004
PSCL2 PREFETCH  REQUESTED:          0  ISSUED:          0  USEFUL:          0  USELESS:          0
PSCL2 USEFUL LOAD PREFETCHES:          0 PREFETCH ISSUED TO LOWER LEVEL:          0  ACCURACY: -nan
PSCL2 TIMELY PREFETCHES:          0 LATE PREFETCHES: 0 DROPPED PREFETCHES: 0
PSCL2 PREFETCHES SAME FILL-ORIGIN LEVEL: 0 DIFFERENT FILL-ORIGIN LEVEL: 0

LLC TOTAL     ACCESS:   13243364  HIT:    6836104  MISS:    6407260  HIT %:    51.6191  MISS %:    48.3809   MPKI: 64.0726
LLC LOAD      ACCESS:   13202197  HIT:    6797737  MISS:    6404460  HIT %:    51.4894  MISS %:    48.5106   MPKI: 64.0446
LLC WRITEBACK ACCESS:      37662  HIT:      37601  MISS:         61  HIT %:     99.838  MISS %:   0.161967   MPKI: 0.00061
LLC LOAD TRANSLATION ACCESS:       3505  HIT:        766  MISS:       2739  HIT %:    21.8545  MISS %:    78.1455   MPKI: 0.02739
LLC PREFETCH  REQUESTED:          0  ISSUED:          0  USEFUL:          0  USELESS:          0
LLC USEFUL LOAD PREFETCHES:          0 PREFETCH ISSUED TO LOWER LEVEL:          0  ACCURACY: -nan
LLC TIMELY PREFETCHES:          0 LATE PREFETCHES: 0 DROPPED PREFETCHES: 0
LLC PREFETCHES SAME FILL-ORIGIN LEVEL: 0 DIFFERENT FILL-ORIGIN LEVEL: 0
LLC AVERAGE MISS LATENCY: 160.351 cycles
LLC RQ	ACCESS:   13205703	FORWARD:          0	MERGED:          0	TO_CACHE:   13205703
LLC WQ	ACCESS:      37662	FORWARD:          0	MERGED:          0	TO_CACHE:      37662

LLC Dense regions hint to LLC: 0

RAW hits: 0
Loads Generated: 39375943
Loads sent to L1D: 39375942
Stores Generated: 1192990
Stores sent to L1D: 1192990
Major fault: 0 Minor fault: 28421
Allocated PAGES: 28421

DRAM Statistics
 CHANNEL 0
 RQ ROW_BUFFER_HIT:     721127  ROW_BUFFER_MISS:    5686073
 DBUS_CONGESTED:          2
 WQ ROW_BUFFER_HIT:       9689  ROW_BUFFER_MISS:      27716  FULL:          0

 AVG_CONGESTED_CYCLE: 2
 All warmup complete: 2
Channel 0 Bank busy for read cycles: 0
Channel 0 Bank busy for write cycles: 0
Channel 0
Rank 0
0banks busy for read cycles: 1025625031
0banks busy for write cycles: 36188
1banks busy for read cycles: 731613281
1banks busy for write cycles: 7425733
2banks busy for read cycles: 64326517
2banks busy for write cycles: 185302
3banks busy for read cycles: 9337412
3banks busy for write cycles: 8900
4banks busy for read cycles: 166811
4banks busy for write cycles: 31
5banks busy for read cycles: 4325
5banks busy for write cycles: 0
6banks busy for read cycles: 0
6banks busy for write cycles: 0
7banks busy for read cycles: 0
7banks busy for write cycles: 0
8banks busy for read cycles: 0
8banks busy for write cycles: 0

CPU 0 Branch Prediction Accuracy: 96.3332% MPKI: 7.00038 Average ROB Occupancy at Mispredict: 112.553
Branch types
NOT_BRANCH: 80908524 80.9085%
BRANCH_DIRECT_JUMP: 0 0%
BRANCH_INDIRECT: 0 0%
BRANCH_CONDITIONAL: 19091480 19.0915%
BRANCH_DIRECT_CALL: 0 0%
BRANCH_INDIRECT_CALL: 0 0%
BRANCH_RETURN: 0 0%
BRANCH_OTHER: 0 0%

DRAM PAGES: 1048576
Allocated PAGES: 28421
