
*** ChampSim Multicore Out-of-Order Simulator ***

Warmup Instructions: 50000000
Simulation Instructions: 100000000
Number of CPUs: 1
LLC sets: 2048
LLC ways: 16
Off-chip DRAM Size: 4096 MB Channels: 1 Width: 64-bit Data Rate: 6400 MT/s
CPU 0 runs ./traces/GAP/pr-5.trace.gz
.gz
CPU 0 Bimodal branch predictor
BTB has LRU replacement policy
ITLB has LRU replacement policy
DTLB has LRU replacement policy
STLB has LRU replacement policy
L1I has LRU replacement policy
L1D has LRU replacement policy
Ideal ISB Prefetching
L2C has LRU replacement policy
LLC has LRU replacement policy
Heartbeat CPU 0 instructions: 10000003 cycles: 3333431 heartbeat IPC: 2.99991 cumulative IPC: 2.99991 (Simulation time: 0 hr 0 min 19 sec) 
Heartbeat CPU 0 instructions: 20000000 cycles: 9668823 heartbeat IPC: 1.57843 cumulative IPC: 2.0685 (Simulation time: 0 hr 3 min 11 sec) 
Heartbeat CPU 0 instructions: 30000000 cycles: 16493166 heartbeat IPC: 1.46534 cumulative IPC: 1.81894 (Simulation time: 0 hr 6 min 59 sec) 
Heartbeat CPU 0 instructions: 40000000 cycles: 23354633 heartbeat IPC: 1.45741 cumulative IPC: 1.71272 (Simulation time: 0 hr 10 min 44 sec) 
Heartbeat CPU 0 instructions: 50000003 cycles: 30211187 heartbeat IPC: 1.45846 cumulative IPC: 1.65502 (Simulation time: 0 hr 14 min 33 sec) 

Warmup complete CPU 0 instructions: 50000003 cycles: 30211187 (Simulation time: 0 hr 14 min 33 sec) 

Heartbeat CPU 0 instructions: 60000000 cycles: 216238691 heartbeat IPC: 0.0537555 cumulative IPC: 0.0537555 (Simulation time: 0 hr 20 min 32 sec) 
Heartbeat CPU 0 instructions: 70000002 cycles: 402367802 heartbeat IPC: 0.0537262 cumulative IPC: 0.0537408 (Simulation time: 0 hr 26 min 31 sec) 
Heartbeat CPU 0 instructions: 80000000 cycles: 588418083 heartbeat IPC: 0.0537489 cumulative IPC: 0.0537435 (Simulation time: 0 hr 32 min 30 sec) 
Heartbeat CPU 0 instructions: 90000000 cycles: 775260585 heartbeat IPC: 0.053521 cumulative IPC: 0.0536877 (Simulation time: 0 hr 38 min 39 sec) 
Heartbeat CPU 0 instructions: 100000000 cycles: 961552643 heartbeat IPC: 0.0536792 cumulative IPC: 0.053686 (Simulation time: 0 hr 44 min 45 sec) 
Heartbeat CPU 0 instructions: 110000001 cycles: 1149138503 heartbeat IPC: 0.0533089 cumulative IPC: 0.0536228 (Simulation time: 0 hr 50 min 53 sec) 
Heartbeat CPU 0 instructions: 120000000 cycles: 1335617183 heartbeat IPC: 0.0536254 cumulative IPC: 0.0536232 (Simulation time: 0 hr 56 min 59 sec) 
Heartbeat CPU 0 instructions: 130000003 cycles: 1522966657 heartbeat IPC: 0.0533762 cumulative IPC: 0.0535922 (Simulation time: 1 hr 3 min 14 sec) 
Heartbeat CPU 0 instructions: 140000000 cycles: 1709258159 heartbeat IPC: 0.0536793 cumulative IPC: 0.0536018 (Simulation time: 1 hr 9 min 27 sec) 
Heartbeat CPU 0 instructions: 150000001 cycles: 1895922928 heartbeat IPC: 0.053572 cumulative IPC: 0.0535988 (Simulation time: 1 hr 15 min 40 sec) 
Finished CPU 0 instructions: 100000003 cycles: 1865711803 cumulative IPC: 0.0535988 (Simulation time: 1 hr 15 min 40 sec) 

ChampSim completed all CPUs

Region of Interest Statistics

CPU 0 cumulative IPC: 0.0535988 instructions: 100000003 cycles: 1865711803
ITLB TOTAL     ACCESS:   31757042  HIT:   31757042  MISS:          0  HIT %:        100  MISS %:          0   MPKI: 0
ITLB LOAD TRANSLATION ACCESS:   31757042  HIT:   31757042  MISS:          0  HIT %:        100  MISS %:          0   MPKI: 0
ITLB PREFETCH  REQUESTED:          0  ISSUED:          0  USEFUL:          0  USELESS:          0
ITLB USEFUL LOAD PREFETCHES:          0 PREFETCH ISSUED TO LOWER LEVEL:          0  ACCURACY: -nan
ITLB TIMELY PREFETCHES:          0 LATE PREFETCHES: 0 DROPPED PREFETCHES: 0
ITLB PREFETCHES SAME FILL-ORIGIN LEVEL: 0 DIFFERENT FILL-ORIGIN LEVEL: 0
ITLB AVERAGE MISS LATENCY: -nan cycles
ITLB RQ	ACCESS:   32289298	FORWARD:          0	MERGED:     532257	TO_CACHE:   31757041

DTLB TOTAL     ACCESS:   32004565  HIT:   19869285  MISS:   12135280  HIT %:    62.0827  MISS %:    37.9173   MPKI: 121.353
DTLB LOAD TRANSLATION ACCESS:   32004565  HIT:   19869285  MISS:   12135280  HIT %:    62.0827  MISS %:    37.9173   MPKI: 121.353
DTLB PREFETCH  REQUESTED:          0  ISSUED:          0  USEFUL:          0  USELESS:          0
DTLB USEFUL LOAD PREFETCHES:          0 PREFETCH ISSUED TO LOWER LEVEL:          0  ACCURACY: -nan
DTLB TIMELY PREFETCHES:          0 LATE PREFETCHES: 0 DROPPED PREFETCHES: 0
DTLB PREFETCHES SAME FILL-ORIGIN LEVEL: 0 DIFFERENT FILL-ORIGIN LEVEL: 0
DTLB AVERAGE MISS LATENCY: 9.2242 cycles
DTLB RQ	ACCESS:   32324413	FORWARD:          0	MERGED:     315602	TO_CACHE:   32008811

STLB TOTAL     ACCESS:   12135279  HIT:   12116053  MISS:      19226  HIT %:    99.8416  MISS %:   0.158431   MPKI: 0.19226
STLB LOAD TRANSLATION ACCESS:   12135279  HIT:   12116053  MISS:      19226  HIT %:    99.8416  MISS %:   0.158431   MPKI: 0.19226
STLB PREFETCH  REQUESTED:          0  ISSUED:          0  USEFUL:          0  USELESS:          0
STLB USEFUL LOAD PREFETCHES:          0 PREFETCH ISSUED TO LOWER LEVEL:          0  ACCURACY: -nan
STLB TIMELY PREFETCHES:          0 LATE PREFETCHES: 0 DROPPED PREFETCHES: 0
STLB PREFETCHES SAME FILL-ORIGIN LEVEL: 0 DIFFERENT FILL-ORIGIN LEVEL: 0
STLB AVERAGE MISS LATENCY: 135.348 cycles
STLB RQ	ACCESS:   12135279	FORWARD:          0	MERGED:          0	TO_CACHE:   12135279

STLB Hit, L1D data hit: 0
STLB Hit, L2C data hit: 0
STLB Hit, LLC data hit: 0
STLB Hit, LLC data miss: 0
STLB STLB hints to L2: 0
L1D TOTAL     ACCESS:   30178679  HIT:   12009921  MISS:   18168758  HIT %:     39.796  MISS %:     60.204   MPKI: 181.688
L1D LOAD      ACCESS:   28985689  HIT:   10816931  MISS:   18168758  HIT %:    37.3182  MISS %:    62.6818   MPKI: 181.688
L1D RFO       ACCESS:    1192990  HIT:    1192990  MISS:          0  HIT %:        100  MISS %:          0   MPKI: 0
L1D PREFETCH  REQUESTED:          0  ISSUED:          0  USEFUL:          0  USELESS:          0
L1D USEFUL LOAD PREFETCHES:          0 PREFETCH ISSUED TO LOWER LEVEL:          0  ACCURACY: -nan
L1D TIMELY PREFETCHES:          0 LATE PREFETCHES: 0 DROPPED PREFETCHES: 0
L1D PREFETCHES SAME FILL-ORIGIN LEVEL: 0 DIFFERENT FILL-ORIGIN LEVEL: 0
L1D AVERAGE MISS LATENCY: 94.0494 cycles
L1D RQ	ACCESS:   39375942	FORWARD:          0	MERGED:    8244519	TO_CACHE:   31131423
L1D WQ	ACCESS:    1192990	FORWARD:          0	MERGED:          0	TO_CACHE:    1192990

L1D UNIQUE REGIONS ACCESSED: 0
L1D REGIONS CONFLICTS: 0
L1D Cross Page Prefetch Requests: 0
L1D Same Page Prefetch Requests: 0
L1D ROI Sum of L1D PQ occupancy: 0
L1D PREFETCHES PUSHED FROM L2C: 0
L1I TOTAL     ACCESS:   32289300  HIT:   32289300  MISS:          0  HIT %:        100  MISS %:          0   MPKI: 0
L1I LOAD      ACCESS:   32289300  HIT:   32289300  MISS:          0  HIT %:        100  MISS %:          0   MPKI: 0
L1I PREFETCH  REQUESTED:          0  ISSUED:          0  USEFUL:          0  USELESS:          0
L1I USEFUL LOAD PREFETCHES:          0 PREFETCH ISSUED TO LOWER LEVEL:          0  ACCURACY: -nan
L1I TIMELY PREFETCHES:          0 LATE PREFETCHES: 0 DROPPED PREFETCHES: 0
L1I PREFETCHES SAME FILL-ORIGIN LEVEL: 0 DIFFERENT FILL-ORIGIN LEVEL: 0
L1I AVERAGE MISS LATENCY: -nan cycles
L1I RQ	ACCESS:   49282050	FORWARD:          0	MERGED:   16992752	TO_CACHE:   32289298

BTB TOTAL     ACCESS:   19091477  HIT:   19091474  MISS:          3  HIT %:        100  MISS %: 1.57138e-05   MPKI: 3e-05
BTB BRANCH_DIRECT_JUMP	ACCESS:          0  HIT:          0  MISS:          0
BTB BRANCH_INDIRECT	ACCESS:          0  HIT:          0  MISS:          0
BTB BRANCH_CONDITIONAL	ACCESS:   19091477  HIT:   19091474  MISS:          3
BTB BRANCH_DIRECT_CALL	ACCESS:          0  HIT:          0  MISS:          0
BTB BRANCH_INDIRECT_CALL	ACCESS:          0  HIT:          0  MISS:          0
BTB BRANCH_RETURN	ACCESS:          0  HIT:          0  MISS:          0
BTB BRANCH_OTHER ACCESS:          0  HIT:          0  MISS:          0

L2C TOTAL     ACCESS:   19759351  HIT:    6571044  MISS:   13188307  HIT %:    33.2554  MISS %:    66.7446   MPKI: 131.883
L2C LOAD      ACCESS:   18168758  HIT:    4984083  MISS:   13184675  HIT %:    27.4322  MISS %:    72.5678   MPKI: 131.847
L2C DATA LOAD MPKI: 131.847
L2C INSTRUCTION LOAD MPKI: 0
L2C PREFETCH  ACCESS:    1526630  HIT:    1526630  MISS:          0  HIT %:        100  MISS %:          0   MPKI: 0
AGUS PREFETCH L1 MISS: 0
L2C DATA PREFETCH MPKI: 0
L2C INSTRUCTION PREFETCH MPKI: 0
L2C WRITEBACK ACCESS:      44732  HIT:      44648  MISS:         84  HIT %:    99.8122  MISS %:   0.187785   MPKI: 0.00084
L2C LOAD TRANSLATION ACCESS:      19231  HIT:      15683  MISS:       3548  HIT %:    81.5506  MISS %:    18.4494   MPKI: 0.03548
L2C PREFETCH  REQUESTED:   10399937  ISSUED:   10399937  USEFUL:          0  USELESS:          0
L2C USEFUL LOAD PREFETCHES:          0 PREFETCH ISSUED TO LOWER LEVEL:    8873271  ACCURACY: 0
L2C TIMELY PREFETCHES:          0 LATE PREFETCHES: 0 DROPPED PREFETCHES: 0
L2C PREFETCHES SAME FILL-ORIGIN LEVEL: 0 DIFFERENT FILL-ORIGIN LEVEL: 8873271
L2C AVERAGE MISS LATENCY: 108.92 cycles
L2C RQ	ACCESS:   18187990	FORWARD:          0	MERGED:          0	TO_CACHE:   18187990
L2C WQ	ACCESS:      44732	FORWARD:          0	MERGED:          0	TO_CACHE:      44732
L2C PQ	ACCESS:   10399937	FORWARD:          0	MERGED:         18	TO_CACHE:   10399919

L2C Instructions Evicting Data 0
L2C Translations Evicting Data 3548
L2C Data Evicting Data 13181125
L2C Instructions Evicting Instructions 0
L2C Translations Evicting Instructions 0
L2C Data Evicting Instructions 0
L2C Instructions Evicting Translations 0
L2C Translations Evicting Translations 0
L2C Data Evicting Translations 3550
L2C Dense regions hint from L2: 0
PSCL5 TOTAL     ACCESS:      19226  HIT:      19226  MISS:          0  HIT %:        100  MISS %:          0   MPKI: 0
PSCL5 LOAD TRANSLATION ACCESS:      19226  HIT:      19226  MISS:          0  HIT %:        100  MISS %:          0   MPKI: 0
PSCL5 PREFETCH  REQUESTED:          0  ISSUED:          0  USEFUL:          0  USELESS:          0
PSCL5 USEFUL LOAD PREFETCHES:          0 PREFETCH ISSUED TO LOWER LEVEL:          0  ACCURACY: -nan
PSCL5 TIMELY PREFETCHES:          0 LATE PREFETCHES: 0 DROPPED PREFETCHES: 0
PSCL5 PREFETCHES SAME FILL-ORIGIN LEVEL: 0 DIFFERENT FILL-ORIGIN LEVEL: 0

PSCL4 TOTAL     ACCESS:      19226  HIT:      19226  MISS:          0  HIT %:        100  MISS %:          0   MPKI: 0
PSCL4 LOAD TRANSLATION ACCESS:      19226  HIT:      19226  MISS:          0  HIT %:        100  MISS %:          0   MPKI: 0
PSCL4 PREFETCH  REQUESTED:          0  ISSUED:          0  USEFUL:          0  USELESS:          0
PSCL4 USEFUL LOAD PREFETCHES:          0 PREFETCH ISSUED TO LOWER LEVEL:          0  ACCURACY: -nan
PSCL4 TIMELY PREFETCHES:          0 LATE PREFETCHES: 0 DROPPED PREFETCHES: 0
PSCL4 PREFETCHES SAME FILL-ORIGIN LEVEL: 0 DIFFERENT FILL-ORIGIN LEVEL: 0

PSCL3 TOTAL     ACCESS:      19226  HIT:      19226  MISS:          0  HIT %:        100  MISS %:          0   MPKI: 0
PSCL3 LOAD TRANSLATION ACCESS:      19226  HIT:      19226  MISS:          0  HIT %:        100  MISS %:          0   MPKI: 0
PSCL3 PREFETCH  REQUESTED:          0  ISSUED:          0  USEFUL:          0  USELESS:          0
PSCL3 USEFUL LOAD PREFETCHES:          0 PREFETCH ISSUED TO LOWER LEVEL:          0  ACCURACY: -nan
PSCL3 TIMELY PREFETCHES:          0 LATE PREFETCHES: 0 DROPPED PREFETCHES: 0
PSCL3 PREFETCHES SAME FILL-ORIGIN LEVEL: 0 DIFFERENT FILL-ORIGIN LEVEL: 0

PSCL2 TOTAL     ACCESS:      19226  HIT:      19186  MISS:         40  HIT %:    99.7919  MISS %:   0.208052   MPKI: 0.0004
PSCL2 LOAD TRANSLATION ACCESS:      19226  HIT:      19186  MISS:         40  HIT %:    99.7919  MISS %:   0.208052   MPKI: 0.0004
PSCL2 PREFETCH  REQUESTED:          0  ISSUED:          0  USEFUL:          0  USELESS:          0
PSCL2 USEFUL LOAD PREFETCHES:          0 PREFETCH ISSUED TO LOWER LEVEL:          0  ACCURACY: -nan
PSCL2 TIMELY PREFETCHES:          0 LATE PREFETCHES: 0 DROPPED PREFETCHES: 0
PSCL2 PREFETCHES SAME FILL-ORIGIN LEVEL: 0 DIFFERENT FILL-ORIGIN LEVEL: 0

LLC TOTAL     ACCESS:   22088410  HIT:   12404711  MISS:    9683699  HIT %:    56.1594  MISS %:    43.8406   MPKI: 96.837
LLC LOAD      ACCESS:   13184675  HIT:    6707112  MISS:    6477563  HIT %:    50.8705  MISS %:    49.1295   MPKI: 64.7756
LLC PREFETCH  ACCESS:    8862486  HIT:    5659369  MISS:    3203117  HIT %:    63.8576  MISS %:    36.1424   MPKI: 32.0312
AGUS PREFETCH L1 MISS: 0
LLC WRITEBACK ACCESS:      37701  HIT:      37609  MISS:         92  HIT %:     99.756  MISS %:   0.244025   MPKI: 0.00092
LLC LOAD TRANSLATION ACCESS:       3548  HIT:        621  MISS:       2927  HIT %:    17.5028  MISS %:    82.4972   MPKI: 0.02927
LLC PREFETCH  REQUESTED:          0  ISSUED:          0  USEFUL:    1039620  USELESS:    2163357
LLC USEFUL LOAD PREFETCHES:    1039620 PREFETCH ISSUED TO LOWER LEVEL:    3209448  ACCURACY: 32.3925
LLC TIMELY PREFETCHES:    1039620 LATE PREFETCHES: 6330 DROPPED PREFETCHES: 0
LLC PREFETCHES SAME FILL-ORIGIN LEVEL: 3209448 DIFFERENT FILL-ORIGIN LEVEL: 0
LLC AVERAGE MISS LATENCY: 166.34 cycles
LLC RQ	ACCESS:   13188224	FORWARD:          0	MERGED:          0	TO_CACHE:   13188224
LLC WQ	ACCESS:      37701	FORWARD:          0	MERGED:          0	TO_CACHE:      37701
LLC PQ	ACCESS:    8873271	FORWARD:          0	MERGED:          0	TO_CACHE:    8873271

LLC Dense regions hint to LLC: 0

RAW hits: 0
Loads Generated: 39375943
Loads sent to L1D: 39375942
Stores Generated: 1192990
Stores sent to L1D: 1192990
Major fault: 0 Minor fault: 28421
Allocated PAGES: 28421
Prefetcher final stats
Training Unit Size: 69
Addr table size: 1804999 1804999


Triggers: 18451008
No Prediction: 3330771 18.052
Stream end: 9877611
No translation: 1453745859 7878.95
Predictions: 14412783 78.1138


Stream divergence: 4143418 22.4563
Stream divergence -- new stream: 0

DRAM Statistics
 CHANNEL 0
 RQ ROW_BUFFER_HIT:    1046594  ROW_BUFFER_MISS:    8637015
 DBUS_CONGESTED:         75
 WQ ROW_BUFFER_HIT:      10681  ROW_BUFFER_MISS:      26749  FULL:          0

 AVG_CONGESTED_CYCLE: 5
 All warmup complete: 2
Channel 0 Bank busy for read cycles: 0
Channel 0 Bank busy for write cycles: 0
Channel 0
Rank 0
0banks busy for read cycles: 894829060
0banks busy for write cycles: 35942
1banks busy for read cycles: 657061025
1banks busy for write cycles: 7957537
2banks busy for read cycles: 233150731
2banks busy for write cycles: 249056
3banks busy for read cycles: 65716229
3banks busy for write cycles: 11409
4banks busy for read cycles: 6149185
4banks busy for write cycles: 250
5banks busy for read cycles: 533546
5banks busy for write cycles: 0
6banks busy for read cycles: 17590
6banks busy for write cycles: 0
7banks busy for read cycles: 244
7banks busy for write cycles: 0
8banks busy for read cycles: 0
8banks busy for write cycles: 0

CPU 0 Branch Prediction Accuracy: 96.3332% MPKI: 7.00038 Average ROB Occupancy at Mispredict: 115.07
Branch types
NOT_BRANCH: 80908524 80.9085%
BRANCH_DIRECT_JUMP: 0 0%
BRANCH_INDIRECT: 0 0%
BRANCH_CONDITIONAL: 19091480 19.0915%
BRANCH_DIRECT_CALL: 0 0%
BRANCH_INDIRECT_CALL: 0 0%
BRANCH_RETURN: 0 0%
BRANCH_OTHER: 0 0%

DRAM PAGES: 1048576
Allocated PAGES: 28421
