
*** ChampSim Multicore Out-of-Order Simulator ***

Warmup Instructions: 50000000
Simulation Instructions: 100000000
Number of CPUs: 1
LLC sets: 2048
LLC ways: 16
Off-chip DRAM Size: 4096 MB Channels: 1 Width: 64-bit Data Rate: 6400 MT/s
CPU 0 runs ./traces/GAP/SUBSET/pr-5.trace.gz
.gz
CPU 0 Bimodal branch predictor
BTB has LRU replacement policy
ITLB has LRU replacement policy
DTLB has LRU replacement policy
STLB has LRU replacement policy
L1I has LRU replacement policy
L1D has LRU replacement policy
L2C has LRU replacement policy
LLC has LRU replacement policy
Heartbeat CPU 0 instructions: 10000000 cycles: 3333428 heartbeat IPC: 2.99991 cumulative IPC: 2.99991 (Simulation time: 0 hr 0 min 25 sec) 
Heartbeat CPU 0 instructions: 20000000 cycles: 10440587 heartbeat IPC: 1.40703 cumulative IPC: 1.9156 (Simulation time: 0 hr 7 min 50 sec) 
Heartbeat CPU 0 instructions: 30000000 cycles: 18001399 heartbeat IPC: 1.32261 cumulative IPC: 1.66654 (Simulation time: 0 hr 16 min 42 sec) 
Heartbeat CPU 0 instructions: 40000000 cycles: 25683515 heartbeat IPC: 1.30172 cumulative IPC: 1.55742 (Simulation time: 0 hr 26 min 2 sec) 
Heartbeat CPU 0 instructions: 50000003 cycles: 33369232 heartbeat IPC: 1.30112 cumulative IPC: 1.49839 (Simulation time: 0 hr 35 min 19 sec) 

Warmup complete CPU 0 instructions: 50000003 cycles: 33369232 (Simulation time: 0 hr 35 min 19 sec) 

Heartbeat CPU 0 instructions: 60000000 cycles: 224248533 heartbeat IPC: 0.0523891 cumulative IPC: 0.0523891 (Simulation time: 0 hr 44 min 45 sec) 
Heartbeat CPU 0 instructions: 70000002 cycles: 418053418 heartbeat IPC: 0.0515983 cumulative IPC: 0.0519907 (Simulation time: 0 hr 54 min 27 sec) 
Heartbeat CPU 0 instructions: 80000000 cycles: 611495673 heartbeat IPC: 0.051695 cumulative IPC: 0.0518918 (Simulation time: 1 hr 4 min 18 sec) 
Heartbeat CPU 0 instructions: 90000000 cycles: 804305098 heartbeat IPC: 0.0518647 cumulative IPC: 0.051885 (Simulation time: 1 hr 14 min 11 sec) 
Heartbeat CPU 0 instructions: 100000000 cycles: 997565365 heartbeat IPC: 0.0517437 cumulative IPC: 0.0518567 (Simulation time: 1 hr 24 min 4 sec) 
Heartbeat CPU 0 instructions: 110000001 cycles: 1191850795 heartbeat IPC: 0.0514707 cumulative IPC: 0.0517919 (Simulation time: 1 hr 34 min 2 sec) 
Heartbeat CPU 0 instructions: 120000000 cycles: 1385735346 heartbeat IPC: 0.0515771 cumulative IPC: 0.0517611 (Simulation time: 1 hr 43 min 57 sec) 
Heartbeat CPU 0 instructions: 130000003 cycles: 1579656320 heartbeat IPC: 0.0515674 cumulative IPC: 0.0517368 (Simulation time: 1 hr 53 min 59 sec) 
Heartbeat CPU 0 instructions: 140000000 cycles: 1772919294 heartbeat IPC: 0.051743 cumulative IPC: 0.0517375 (Simulation time: 2 hr 4 min 7 sec) 
Heartbeat CPU 0 instructions: 150000001 cycles: 1966448416 heartbeat IPC: 0.0516718 cumulative IPC: 0.0517309 (Simulation time: 2 hr 14 min 10 sec) 
Finished CPU 0 instructions: 100000003 cycles: 1933079216 cumulative IPC: 0.0517309 (Simulation time: 2 hr 14 min 10 sec) 

ChampSim completed all CPUs

Region of Interest Statistics

CPU 0 cumulative IPC: 0.0517309 instructions: 100000003 cycles: 1933079216
ITLB TOTAL     ACCESS:   31769210  HIT:   31769210  MISS:          0  HIT %:        100  MISS %:          0   MPKI: 0
ITLB LOAD TRANSLATION ACCESS:   31769210  HIT:   31769210  MISS:          0  HIT %:        100  MISS %:          0   MPKI: 0
ITLB PREFETCH  REQUESTED:          0  ISSUED:          0  USEFUL:          0  USELESS:          0
ITLB USEFUL LOAD PREFETCHES:          0 PREFETCH ISSUED TO LOWER LEVEL:          0  ACCURACY: -nan
ITLB TIMELY PREFETCHES:          0 LATE PREFETCHES: 0 DROPPED PREFETCHES: 0
ITLB PREFETCHES SAME FILL-ORIGIN LEVEL: 0 DIFFERENT FILL-ORIGIN LEVEL: 0
ITLB AVERAGE MISS LATENCY: -nan cycles
ITLB RQ	ACCESS:   32301466	FORWARD:          0	MERGED:     532256	TO_CACHE:   31769210

DTLB TOTAL     ACCESS:   31995583  HIT:   19860308  MISS:   12135275  HIT %:     62.072  MISS %:     37.928   MPKI: 121.353
DTLB LOAD TRANSLATION ACCESS:   31995583  HIT:   19860308  MISS:   12135275  HIT %:     62.072  MISS %:     37.928   MPKI: 121.353
DTLB PREFETCH  REQUESTED:          0  ISSUED:          0  USEFUL:          0  USELESS:          0
DTLB USEFUL LOAD PREFETCHES:          0 PREFETCH ISSUED TO LOWER LEVEL:          0  ACCURACY: -nan
DTLB TIMELY PREFETCHES:          0 LATE PREFETCHES: 0 DROPPED PREFETCHES: 0
DTLB PREFETCHES SAME FILL-ORIGIN LEVEL: 0 DIFFERENT FILL-ORIGIN LEVEL: 0
DTLB AVERAGE MISS LATENCY: 9.20886 cycles
DTLB RQ	ACCESS:   32315413	FORWARD:          0	MERGED:     315563	TO_CACHE:   31999850

STLB TOTAL     ACCESS:   43026981  HIT:   43007754  MISS:      19227  HIT %:    99.9553  MISS %:  0.0446859   MPKI: 0.19227
STLB LOAD TRANSLATION ACCESS:   12135274  HIT:   12117751  MISS:      17523  HIT %:    99.8556  MISS %:   0.144397   MPKI: 0.17523
STLB TRANSLATION FROM L1D PREFETCHER ACCESS:   30891707  HIT:   30890003  MISS:       1704  HIT %:    99.9945  MISS %: 0.00551604   MPKI: 0.01704
STLB PREFETCH  REQUESTED:          0  ISSUED:          0  USEFUL:       1704  USELESS:          0
STLB USEFUL LOAD PREFETCHES:       1704 PREFETCH ISSUED TO LOWER LEVEL:          0  ACCURACY: inf
STLB TIMELY PREFETCHES:       1704 LATE PREFETCHES: 0 DROPPED PREFETCHES: 0
STLB PREFETCHES SAME FILL-ORIGIN LEVEL: 0 DIFFERENT FILL-ORIGIN LEVEL: 0
STLB AVERAGE MISS LATENCY: 137.84 cycles
STLB RQ	ACCESS:   47893097	FORWARD:          0	MERGED:    4866116	TO_CACHE:   43026981

STLB Hit, L1D data hit: 0
STLB Hit, L2C data hit: 0
STLB Hit, LLC data hit: 0
STLB Hit, LLC data miss: 0
STLB STLB hints to L2: 0
L1D TOTAL     ACCESS:   66912403  HIT:   15221191  MISS:   51691212  HIT %:    22.7479  MISS %:    77.2521   MPKI: 516.912
L1D LOAD      ACCESS:   30173514  HIT:   13067609  MISS:   17105905  HIT %:    43.3082  MISS %:    56.6918   MPKI: 171.059
L1D RFO       ACCESS:    1192990  HIT:    1192990  MISS:          0  HIT %:        100  MISS %:          0   MPKI: 0
L1D PREFETCH  ACCESS:   35545899  HIT:     960592  MISS:   34585307  HIT %:     2.7024  MISS %:    97.2976   MPKI: 345.853
AGUS PREFETCH L1 MISS: 0
L1D PREFETCH  REQUESTED:   71689698  ISSUED:   71543856  USEFUL:    1592890  USELESS:   32992414
L1D USEFUL LOAD PREFETCHES:    1592890 PREFETCH ISSUED TO LOWER LEVEL:   34741481  ACCURACY: 4.58498
L1D TIMELY PREFETCHES:    1592890 LATE PREFETCHES: 156167 DROPPED PREFETCHES: 0
L1D PREFETCHES SAME FILL-ORIGIN LEVEL: 34741481 DIFFERENT FILL-ORIGIN LEVEL: 0
L1D AVERAGE MISS LATENCY: 93.8635 cycles
L1D RQ	ACCESS:   39375942	FORWARD:          0	MERGED:    8253519	TO_CACHE:   31122423
L1D WQ	ACCESS:    1192990	FORWARD:          0	MERGED:          0	TO_CACHE:    1192990
L1D PQ	ACCESS:   35786033	FORWARD:          0	MERGED:      28210	TO_CACHE:   35757823

L1D UNIQUE REGIONS ACCESSED: 0
L1D REGIONS CONFLICTS: 0
L1D Cross Page Prefetch Requests: 22463980
L1D Same Page Prefetch Requests: 27495716
L1D ROI Sum of L1D PQ occupancy: 499027965
L1D PREFETCHES PUSHED FROM L2C: 0
L1I TOTAL     ACCESS:   32301466  HIT:   32301466  MISS:          0  HIT %:        100  MISS %:          0   MPKI: 0
L1I LOAD      ACCESS:   32301466  HIT:   32301466  MISS:          0  HIT %:        100  MISS %:          0   MPKI: 0
L1I PREFETCH  REQUESTED:          0  ISSUED:          0  USEFUL:          0  USELESS:          0
L1I USEFUL LOAD PREFETCHES:          0 PREFETCH ISSUED TO LOWER LEVEL:          0  ACCURACY: -nan
L1I TIMELY PREFETCHES:          0 LATE PREFETCHES: 0 DROPPED PREFETCHES: 0
L1I PREFETCHES SAME FILL-ORIGIN LEVEL: 0 DIFFERENT FILL-ORIGIN LEVEL: 0
L1I AVERAGE MISS LATENCY: -nan cycles
L1I RQ	ACCESS:   49291543	FORWARD:          0	MERGED:   16990077	TO_CACHE:   32301466

BTB TOTAL     ACCESS:   19091477  HIT:   19091474  MISS:          3  HIT %:        100  MISS %: 1.57138e-05   MPKI: 3e-05
BTB BRANCH_DIRECT_JUMP	ACCESS:          0  HIT:          0  MISS:          0
BTB BRANCH_INDIRECT	ACCESS:          0  HIT:          0  MISS:          0
BTB BRANCH_CONDITIONAL	ACCESS:   19091477  HIT:   19091474  MISS:          3
BTB BRANCH_DIRECT_CALL	ACCESS:          0  HIT:          0  MISS:          0
BTB BRANCH_INDIRECT_CALL	ACCESS:          0  HIT:          0  MISS:          0
BTB BRANCH_RETURN	ACCESS:          0  HIT:          0  MISS:          0
BTB BRANCH_OTHER ACCESS:          0  HIT:          0  MISS:          0

L2C TOTAL     ACCESS:   51772128  HIT:   12064212  MISS:   39707916  HIT %:    23.3025  MISS %:    76.6975   MPKI: 397.079
L2C LOAD      ACCESS:   16949724  HIT:    3671305  MISS:   13278419  HIT %:      21.66  MISS %:      78.34   MPKI: 132.784
L2C DATA LOAD MPKI: 132.784
L2C INSTRUCTION LOAD MPKI: 0
L2C PREFETCH  ACCESS:   34741473  HIT:    8316447  MISS:   26425026  HIT %:    23.9381  MISS %:    76.0619   MPKI: 264.25
AGUS PREFETCH L1 MISS: 0
L2C DATA PREFETCH MPKI: 264.25
L2C INSTRUCTION PREFETCH MPKI: 0
L2C WRITEBACK ACCESS:      61699  HIT:      61603  MISS:         96  HIT %:    99.8444  MISS %:   0.155594   MPKI: 0.00096
L2C LOAD TRANSLATION ACCESS:      17523  HIT:      14801  MISS:       2722  HIT %:    84.4661  MISS %:    15.5339   MPKI: 0.02722
L2C TRANSLATION FROM L1D PREFETCHER ACCESS:       1709  HIT:         56  MISS:       1653  HIT %:    3.27677  MISS %:    96.7232   MPKI: 0.01653
L2C PREFETCH  REQUESTED:          0  ISSUED:          0  USEFUL:    1142071  USELESS:   25284195
L2C USEFUL LOAD PREFETCHES:    1142071 PREFETCH ISSUED TO LOWER LEVEL:   26425029  ACCURACY: 4.32193
L2C TIMELY PREFETCHES:    1142071 LATE PREFETCHES: 0 DROPPED PREFETCHES: 0
L2C PREFETCHES SAME FILL-ORIGIN LEVEL: 0 DIFFERENT FILL-ORIGIN LEVEL: 0
L2C AVERAGE MISS LATENCY: 102.513 cycles
L2C RQ	ACCESS:   16968970	FORWARD:          0	MERGED:          0	TO_CACHE:   16968956
L2C WQ	ACCESS:      61699	FORWARD:         14	MERGED:          0	TO_CACHE:      61699
L2C PQ	ACCESS:   34741481	FORWARD:          0	MERGED:          0	TO_CACHE:   34741481

L2C Instructions Evicting Data 0
L2C Translations Evicting Data 4375
L2C Data Evicting Data 39699070
L2C Instructions Evicting Instructions 0
L2C Translations Evicting Instructions 0
L2C Data Evicting Instructions 0
L2C Instructions Evicting Translations 0
L2C Translations Evicting Translations 0
L2C Data Evicting Translations 4375
L2C Dense regions hint from L2: 0
PSCL5 TOTAL     ACCESS:      19227  HIT:      19227  MISS:          0  HIT %:        100  MISS %:          0   MPKI: 0
PSCL5 LOAD TRANSLATION ACCESS:      17523  HIT:      17523  MISS:          0  HIT %:        100  MISS %:          0   MPKI: 0
PSCL5 TRANSLATION FROM L1D PREFETCHER ACCESS:       1704  HIT:       1704  MISS:          0  HIT %:        100  MISS %:          0   MPKI: 0
PSCL5 PREFETCH  REQUESTED:          0  ISSUED:          0  USEFUL:          0  USELESS:          0
PSCL5 USEFUL LOAD PREFETCHES:          0 PREFETCH ISSUED TO LOWER LEVEL:          0  ACCURACY: -nan
PSCL5 TIMELY PREFETCHES:          0 LATE PREFETCHES: 0 DROPPED PREFETCHES: 0
PSCL5 PREFETCHES SAME FILL-ORIGIN LEVEL: 0 DIFFERENT FILL-ORIGIN LEVEL: 0

PSCL4 TOTAL     ACCESS:      19227  HIT:      19227  MISS:          0  HIT %:        100  MISS %:          0   MPKI: 0
PSCL4 LOAD TRANSLATION ACCESS:      17523  HIT:      17523  MISS:          0  HIT %:        100  MISS %:          0   MPKI: 0
PSCL4 TRANSLATION FROM L1D PREFETCHER ACCESS:       1704  HIT:       1704  MISS:          0  HIT %:        100  MISS %:          0   MPKI: 0
PSCL4 PREFETCH  REQUESTED:          0  ISSUED:          0  USEFUL:          0  USELESS:          0
PSCL4 USEFUL LOAD PREFETCHES:          0 PREFETCH ISSUED TO LOWER LEVEL:          0  ACCURACY: -nan
PSCL4 TIMELY PREFETCHES:          0 LATE PREFETCHES: 0 DROPPED PREFETCHES: 0
PSCL4 PREFETCHES SAME FILL-ORIGIN LEVEL: 0 DIFFERENT FILL-ORIGIN LEVEL: 0

PSCL3 TOTAL     ACCESS:      19227  HIT:      19227  MISS:          0  HIT %:        100  MISS %:          0   MPKI: 0
PSCL3 LOAD TRANSLATION ACCESS:      17523  HIT:      17523  MISS:          0  HIT %:        100  MISS %:          0   MPKI: 0
PSCL3 TRANSLATION FROM L1D PREFETCHER ACCESS:       1704  HIT:       1704  MISS:          0  HIT %:        100  MISS %:          0   MPKI: 0
PSCL3 PREFETCH  REQUESTED:          0  ISSUED:          0  USEFUL:          0  USELESS:          0
PSCL3 USEFUL LOAD PREFETCHES:          0 PREFETCH ISSUED TO LOWER LEVEL:          0  ACCURACY: -nan
PSCL3 TIMELY PREFETCHES:          0 LATE PREFETCHES: 0 DROPPED PREFETCHES: 0
PSCL3 PREFETCHES SAME FILL-ORIGIN LEVEL: 0 DIFFERENT FILL-ORIGIN LEVEL: 0

PSCL2 TOTAL     ACCESS:      19227  HIT:      19187  MISS:         40  HIT %:     99.792  MISS %:   0.208041   MPKI: 0.0004
PSCL2 LOAD TRANSLATION ACCESS:      17528  HIT:      17488  MISS:         40  HIT %:    99.7718  MISS %:   0.228206   MPKI: 0.0004
PSCL2 TRANSLATION FROM L1D PREFETCHER ACCESS:       1699  HIT:       1699  MISS:          0  HIT %:        100  MISS %:          0   MPKI: 0
PSCL2 PREFETCH  REQUESTED:          0  ISSUED:          0  USEFUL:          0  USELESS:          0
PSCL2 USEFUL LOAD PREFETCHES:          0 PREFETCH ISSUED TO LOWER LEVEL:          0  ACCURACY: -nan
PSCL2 TIMELY PREFETCHES:          0 LATE PREFETCHES: 0 DROPPED PREFETCHES: 0
PSCL2 PREFETCHES SAME FILL-ORIGIN LEVEL: 0 DIFFERENT FILL-ORIGIN LEVEL: 0

LLC TOTAL     ACCESS:   39746503  HIT:   22279361  MISS:   17467142  HIT %:    56.0536  MISS %:    43.9464   MPKI: 174.671
LLC LOAD      ACCESS:   13278419  HIT:    7041181  MISS:    6237238  HIT %:    53.0273  MISS %:    46.9727   MPKI: 62.3724
LLC PREFETCH  ACCESS:   26425027  HIT:   15198263  MISS:   11226764  HIT %:    57.5147  MISS %:    42.4853   MPKI: 112.268
AGUS PREFETCH L1 MISS: 0
LLC WRITEBACK ACCESS:      38682  HIT:      38540  MISS:        142  HIT %:    99.6329  MISS %:   0.367096   MPKI: 0.00142
LLC LOAD TRANSLATION ACCESS:       2722  HIT:        476  MISS:       2246  HIT %:    17.4871  MISS %:    82.5129   MPKI: 0.02246
LLC TRANSLATION FROM L1D PREFETCHER ACCESS:       1653  HIT:        901  MISS:        752  HIT %:     54.507  MISS %:     45.493   MPKI: 0.00752
LLC PREFETCH  REQUESTED:          0  ISSUED:          0  USEFUL:    1519070  USELESS:    9707875
LLC USEFUL LOAD PREFETCHES:    1519070 PREFETCH ISSUED TO LOWER LEVEL:   11226766  ACCURACY: 13.5308
LLC TIMELY PREFETCHES:    1519070 LATE PREFETCHES: 0 DROPPED PREFETCHES: 0
LLC PREFETCHES SAME FILL-ORIGIN LEVEL: 0 DIFFERENT FILL-ORIGIN LEVEL: 0
LLC AVERAGE MISS LATENCY: 164.776 cycles
LLC RQ	ACCESS:   13282794	FORWARD:          0	MERGED:          0	TO_CACHE:   13282794
LLC WQ	ACCESS:      38682	FORWARD:          0	MERGED:          0	TO_CACHE:      38682
LLC PQ	ACCESS:   26425029	FORWARD:          0	MERGED:          0	TO_CACHE:   26425029

LLC Dense regions hint to LLC: 0

RAW hits: 0
Loads Generated: 39375943
Loads sent to L1D: 39375942
Stores Generated: 1192990
Stores sent to L1D: 1192990
Major fault: 0 Minor fault: 28421
Allocated PAGES: 28421

stream: 
stream:times selected: 23486541
stream:pref_filled: 21696572
stream:pref_useful: 669750
stream:pref_late: 157678
stream:misses: 5876079
stream:misses_by_poll: 0

CS: 
CS:times selected: 349072
CS:pref_filled: 820794
CS:pref_useful: 706708
CS:pref_late: 18861
CS:misses: 772074
CS:misses_by_poll: 219

CPLX: 
CPLX:times selected: 22917044
CPLX:pref_filled: 396499
CPLX:pref_useful: 41390
CPLX:pref_late: 6967
CPLX:misses: 18180228
CPLX:misses_by_poll: 74

NL_L1: 
NL:times selected: 35541
NL:pref_filled: 34669
NL:pref_useful: 4653
NL:pref_late: 158
NL:misses: 40707
NL:misses_by_poll: 0

total selections: 46788198
total_filled: 34585307
total_useful: 1592890
total_late: 221471
total_polluted: 293
total_misses_after_warmup: 18054815
conflicts: 52

test: 13756139
ISB Prefetcher final stats
Training Unit Size: 7
Addr table size: 870839 870839


Triggers: 23486542
No Prediction: 2930731 12.4783
Stream end: 20415604
No translation: 3545263604 15094.9
Predictions: 25781160 109.77


Stream divergence: 5546052 23.6137
Stream divergence -- new stream: 0

DRAM Statistics
 CHANNEL 0
 RQ ROW_BUFFER_HIT:    2951189  ROW_BUFFER_MISS:   14515812
 DBUS_CONGESTED:        422
 WQ ROW_BUFFER_HIT:      12945  ROW_BUFFER_MISS:      24547  FULL:          0

 AVG_CONGESTED_CYCLE: 5
 All warmup complete: 2
Channel 0 Bank busy for read cycles: 0
Channel 0 Bank busy for write cycles: 0
Channel 0
Rank 0
0banks busy for read cycles: 703684334
0banks busy for write cycles: 33892
1banks busy for read cycles: 516388404
1banks busy for write cycles: 9503428
2banks busy for read cycles: 434542361
2banks busy for write cycles: 797030
3banks busy for read cycles: 173226464
3banks busy for write cycles: 74173
4banks busy for read cycles: 63460289
4banks busy for write cycles: 8315
5banks busy for read cycles: 23545729
5banks busy for write cycles: 462
6banks busy for read cycles: 6571010
6banks busy for write cycles: 594
7banks busy for read cycles: 1150001
7banks busy for write cycles: 0
8banks busy for read cycles: 92731
8banks busy for write cycles: 0

CPU 0 Branch Prediction Accuracy: 96.3332% MPKI: 7.00038 Average ROB Occupancy at Mispredict: 115.074
Branch types
NOT_BRANCH: 80908520 80.9085%
BRANCH_DIRECT_JUMP: 0 0%
BRANCH_INDIRECT: 0 0%
BRANCH_CONDITIONAL: 19091480 19.0915%
BRANCH_DIRECT_CALL: 0 0%
BRANCH_INDIRECT_CALL: 0 0%
BRANCH_RETURN: 0 0%
BRANCH_OTHER: 0 0%

DRAM PAGES: 1048576
Allocated PAGES: 28421
