
*** ChampSim Multicore Out-of-Order Simulator ***

Warmup Instructions: 50000000
Simulation Instructions: 100000000
Number of CPUs: 1
LLC sets: 2048
LLC ways: 16
Off-chip DRAM Size: 4096 MB Channels: 1 Width: 64-bit Data Rate: 6400 MT/s
CPU 0 runs ./traces/GAP/sssp-5.trace.gz
.gz
CPU 0 Bimodal branch predictor
BTB has LRU replacement policy
ITLB has LRU replacement policy
DTLB has LRU replacement policy
STLB has LRU replacement policy
L1I has LRU replacement policy
Ideal ISB Prefetching
L1D has LRU replacement policy
L2C has LRU replacement policy
LLC has LRU replacement policy
Heartbeat CPU 0 instructions: 10000001 cycles: 3243135 heartbeat IPC: 3.08344 cumulative IPC: 3.08344 (Simulation time: 0 hr 0 min 56 sec) 
Heartbeat CPU 0 instructions: 20000000 cycles: 6505793 heartbeat IPC: 3.06499 cumulative IPC: 3.07418 (Simulation time: 0 hr 2 min 26 sec) 
Heartbeat CPU 0 instructions: 30000001 cycles: 9791353 heartbeat IPC: 3.04362 cumulative IPC: 3.06393 (Simulation time: 0 hr 4 min 7 sec) 
Heartbeat CPU 0 instructions: 40000000 cycles: 13096675 heartbeat IPC: 3.02542 cumulative IPC: 3.05421 (Simulation time: 0 hr 5 min 54 sec) 
Heartbeat CPU 0 instructions: 50000001 cycles: 16407566 heartbeat IPC: 3.02034 cumulative IPC: 3.04737 (Simulation time: 0 hr 7 min 40 sec) 

Warmup complete CPU 0 instructions: 50000001 cycles: 16407566 (Simulation time: 0 hr 7 min 40 sec) 

Heartbeat CPU 0 instructions: 60000000 cycles: 53268626 heartbeat IPC: 0.271289 cumulative IPC: 0.271289 (Simulation time: 0 hr 10 min 2 sec) 
Heartbeat CPU 0 instructions: 70000001 cycles: 89310535 heartbeat IPC: 0.277455 cumulative IPC: 0.274337 (Simulation time: 0 hr 12 min 27 sec) 
Heartbeat CPU 0 instructions: 80000000 cycles: 125047423 heartbeat IPC: 0.279823 cumulative IPC: 0.276142 (Simulation time: 0 hr 14 min 46 sec) 
Heartbeat CPU 0 instructions: 90000001 cycles: 159693199 heartbeat IPC: 0.288635 cumulative IPC: 0.279163 (Simulation time: 0 hr 17 min 17 sec) 
Heartbeat CPU 0 instructions: 100000000 cycles: 193789672 heartbeat IPC: 0.293285 cumulative IPC: 0.281877 (Simulation time: 0 hr 19 min 48 sec) 
Heartbeat CPU 0 instructions: 110000002 cycles: 227204733 heartbeat IPC: 0.299266 cumulative IPC: 0.284634 (Simulation time: 0 hr 22 min 23 sec) 
Heartbeat CPU 0 instructions: 120000000 cycles: 260129787 heartbeat IPC: 0.30372 cumulative IPC: 0.287212 (Simulation time: 0 hr 25 min 2 sec) 
Heartbeat CPU 0 instructions: 130000000 cycles: 293076785 heartbeat IPC: 0.303518 cumulative IPC: 0.289154 (Simulation time: 0 hr 27 min 36 sec) 
Heartbeat CPU 0 instructions: 140000000 cycles: 325656174 heartbeat IPC: 0.306943 cumulative IPC: 0.291028 (Simulation time: 0 hr 30 min 16 sec) 
Heartbeat CPU 0 instructions: 150000000 cycles: 357928565 heartbeat IPC: 0.309862 cumulative IPC: 0.292808 (Simulation time: 0 hr 33 min 0 sec) 
Finished CPU 0 instructions: 100000003 cycles: 341521000 cumulative IPC: 0.292808 (Simulation time: 0 hr 33 min 0 sec) 

ChampSim completed all CPUs

Region of Interest Statistics

CPU 0 cumulative IPC: 0.292808 instructions: 100000003 cycles: 341521000
ITLB TOTAL     ACCESS:   12192790  HIT:   12192790  MISS:          0  HIT %:        100  MISS %:          0   MPKI: 0
ITLB LOAD TRANSLATION ACCESS:   12192790  HIT:   12192790  MISS:          0  HIT %:        100  MISS %:          0   MPKI: 0
ITLB PREFETCH  REQUESTED:          0  ISSUED:          0  USEFUL:          0  USELESS:          0
ITLB USEFUL LOAD PREFETCHES:          0 PREFETCH ISSUED TO LOWER LEVEL:          0  ACCURACY: -nan
ITLB TIMELY PREFETCHES:          0 LATE PREFETCHES: 0 DROPPED PREFETCHES: 0
ITLB PREFETCHES SAME FILL-ORIGIN LEVEL: 0 DIFFERENT FILL-ORIGIN LEVEL: 0
ITLB AVERAGE MISS LATENCY: -nan cycles
ITLB RQ	ACCESS:   12620862	FORWARD:          0	MERGED:     428072	TO_CACHE:   12192790

DTLB TOTAL     ACCESS:   20920762  HIT:   18936505  MISS:    1984257  HIT %:    90.5154  MISS %:    9.48463   MPKI: 19.8426
DTLB LOAD TRANSLATION ACCESS:   20920762  HIT:   18936505  MISS:    1984257  HIT %:    90.5154  MISS %:    9.48463   MPKI: 19.8426
DTLB PREFETCH  REQUESTED:          0  ISSUED:          0  USEFUL:          0  USELESS:          0
DTLB USEFUL LOAD PREFETCHES:          0 PREFETCH ISSUED TO LOWER LEVEL:          0  ACCURACY: -nan
DTLB TIMELY PREFETCHES:          0 LATE PREFETCHES: 0 DROPPED PREFETCHES: 0
DTLB PREFETCHES SAME FILL-ORIGIN LEVEL: 0 DIFFERENT FILL-ORIGIN LEVEL: 0
DTLB AVERAGE MISS LATENCY: 11.7281 cycles
DTLB RQ	ACCESS:   22522677	FORWARD:          0	MERGED:    1545515	TO_CACHE:   20977162

STLB TOTAL     ACCESS:    4937848  HIT:    4908724  MISS:      29124  HIT %:    99.4102  MISS %:   0.589812   MPKI: 0.29124
STLB LOAD TRANSLATION ACCESS:    1984257  HIT:    1959355  MISS:      24902  HIT %:     98.745  MISS %:    1.25498   MPKI: 0.24902
STLB TRANSLATION FROM L1D PREFETCHER ACCESS:    2953591  HIT:    2949369  MISS:       4222  HIT %:    99.8571  MISS %:   0.142945   MPKI: 0.04222
STLB PREFETCH  REQUESTED:          0  ISSUED:          0  USEFUL:       2603  USELESS:       1601
STLB USEFUL LOAD PREFETCHES:       2603 PREFETCH ISSUED TO LOWER LEVEL:          0  ACCURACY: inf
STLB TIMELY PREFETCHES:       2603 LATE PREFETCHES: 112 DROPPED PREFETCHES: 0
STLB PREFETCHES SAME FILL-ORIGIN LEVEL: 0 DIFFERENT FILL-ORIGIN LEVEL: 0
STLB AVERAGE MISS LATENCY: 223.325 cycles
STLB RQ	ACCESS:    6443736	FORWARD:          0	MERGED:    1505560	TO_CACHE:    4938176

STLB Hit, L1D data hit: 0
STLB Hit, L2C data hit: 0
STLB Hit, LLC data hit: 0
STLB Hit, LLC data miss: 0
STLB STLB hints to L2: 0
L1D TOTAL     ACCESS:   24711565  HIT:   15508991  MISS:    9202574  HIT %:    62.7601  MISS %:    37.2399   MPKI: 92.0257
L1D LOAD      ACCESS:   19051364  HIT:   14359049  MISS:    4692315  HIT %:    75.3702  MISS %:    24.6298   MPKI: 46.9231
L1D RFO       ACCESS:    1331344  HIT:     996430  MISS:     334914  HIT %:    74.8439  MISS %:    25.1561   MPKI: 3.34914
L1D PREFETCH  ACCESS:    4328857  HIT:     153512  MISS:    4175345  HIT %:    3.54625  MISS %:    96.4538   MPKI: 41.7534
AGUS PREFETCH L1 MISS: 0
L1D PREFETCH  REQUESTED:    9345540  ISSUED:    9008998  USEFUL:     410044  USELESS:    3765151
L1D USEFUL LOAD PREFETCHES:     410044 PREFETCH ISSUED TO LOWER LEVEL:    4199658  ACCURACY: 9.76375
L1D TIMELY PREFETCHES:     410044 LATE PREFETCHES: 24313 DROPPED PREFETCHES: 0
L1D PREFETCHES SAME FILL-ORIGIN LEVEL: 4199658 DIFFERENT FILL-ORIGIN LEVEL: 0
L1D AVERAGE MISS LATENCY: 88.6625 cycles
L1D RQ	ACCESS:   37875039	FORWARD:          0	MERGED:   16794320	TO_CACHE:   21079349
L1D WQ	ACCESS:    1443842	FORWARD:       1370	MERGED:        514	TO_CACHE:    1443328
L1D PQ	ACCESS:    4549519	FORWARD:          0	MERGED:      90040	TO_CACHE:    4459479

L1D UNIQUE REGIONS ACCESSED: 0
L1D REGIONS CONFLICTS: 0
L1D Cross Page Prefetch Requests: 4192096
L1D Same Page Prefetch Requests: 2495520
L1D ROI Sum of L1D PQ occupancy: 66103455
L1D PREFETCHES PUSHED FROM L2C: 0
L1I TOTAL     ACCESS:   12620861  HIT:   12620861  MISS:          0  HIT %:        100  MISS %:          0   MPKI: 0
L1I LOAD      ACCESS:   12620861  HIT:   12620861  MISS:          0  HIT %:        100  MISS %:          0   MPKI: 0
L1I PREFETCH  REQUESTED:          0  ISSUED:          0  USEFUL:          0  USELESS:          0
L1I USEFUL LOAD PREFETCHES:          0 PREFETCH ISSUED TO LOWER LEVEL:          0  ACCURACY: -nan
L1I TIMELY PREFETCHES:          0 LATE PREFETCHES: 0 DROPPED PREFETCHES: 0
L1I PREFETCHES SAME FILL-ORIGIN LEVEL: 0 DIFFERENT FILL-ORIGIN LEVEL: 0
L1I AVERAGE MISS LATENCY: -nan cycles
L1I RQ	ACCESS:   20371412	FORWARD:          0	MERGED:    7750550	TO_CACHE:   12620862

BTB TOTAL     ACCESS:   14384211  HIT:   14384089  MISS:        122  HIT %:    99.9992  MISS %: 0.000848152   MPKI: 0.00122
BTB BRANCH_DIRECT_JUMP	ACCESS:    4499227  HIT:    4499194  MISS:         33
BTB BRANCH_INDIRECT	ACCESS:          0  HIT:          0  MISS:          0
BTB BRANCH_CONDITIONAL	ACCESS:    9882952  HIT:    9882878  MISS:         74
BTB BRANCH_DIRECT_CALL	ACCESS:       1016  HIT:       1011  MISS:          5
BTB BRANCH_INDIRECT_CALL	ACCESS:          0  HIT:          0  MISS:          0
BTB BRANCH_RETURN	ACCESS:       1016  HIT:       1006  MISS:         10
BTB BRANCH_OTHER ACCESS:          0  HIT:          0  MISS:          0

L2C TOTAL     ACCESS:   10166847  HIT:    2926219  MISS:    7240628  HIT %:     28.782  MISS %:     71.218   MPKI: 72.4063
L2C LOAD      ACCESS:    4667997  HIT:     764422  MISS:    3903575  HIT %:    16.3758  MISS %:    83.6242   MPKI: 39.0357
L2C DATA LOAD MPKI: 39.0357
L2C INSTRUCTION LOAD MPKI: 0
L2C RFO       ACCESS:     334906  HIT:     210995  MISS:     123911  HIT %:    63.0013  MISS %:    36.9987   MPKI: 1.23911
L2C PREFETCH  ACCESS:    4199652  HIT:    1009389  MISS:    3190263  HIT %:    24.0351  MISS %:    75.9649   MPKI: 31.9026
AGUS PREFETCH L1 MISS: 0
L2C DATA PREFETCH MPKI: 31.9026
L2C INSTRUCTION PREFETCH MPKI: 0
L2C WRITEBACK ACCESS:     930610  HIT:     929515  MISS:       1095  HIT %:    99.8823  MISS %:   0.117665   MPKI: 0.01095
L2C LOAD TRANSLATION ACCESS:      29096  HIT:      11274  MISS:      17822  HIT %:    38.7476  MISS %:    61.2524   MPKI: 0.17822
L2C TRANSLATION FROM L1D PREFETCHER ACCESS:       4586  HIT:        624  MISS:       3962  HIT %:    13.6066  MISS %:    86.3934   MPKI: 0.03962
L2C PREFETCH  REQUESTED:          0  ISSUED:          0  USEFUL:     157981  USELESS:    3036535
L2C USEFUL LOAD PREFETCHES:     157981 PREFETCH ISSUED TO LOWER LEVEL:    3190263  ACCURACY: 4.95197
L2C TIMELY PREFETCHES:     157981 LATE PREFETCHES: 0 DROPPED PREFETCHES: 0
L2C PREFETCHES SAME FILL-ORIGIN LEVEL: 0 DIFFERENT FILL-ORIGIN LEVEL: 0
L2C AVERAGE MISS LATENCY: 93.6363 cycles
L2C RQ	ACCESS:    5036599	FORWARD:          0	MERGED:          0	TO_CACHE:    5036586
L2C WQ	ACCESS:     930610	FORWARD:         19	MERGED:          0	TO_CACHE:     930610
L2C PQ	ACCESS:    4199658	FORWARD:          0	MERGED:          0	TO_CACHE:    4199652

L2C Instructions Evicting Data 0
L2C Translations Evicting Data 21699
L2C Data Evicting Data 7196060
L2C Instructions Evicting Instructions 0
L2C Translations Evicting Instructions 0
L2C Data Evicting Instructions 0
L2C Instructions Evicting Translations 0
L2C Translations Evicting Translations 85
L2C Data Evicting Translations 21689
L2C Dense regions hint from L2: 0
PSCL5 TOTAL     ACCESS:      29124  HIT:      29124  MISS:          0  HIT %:        100  MISS %:          0   MPKI: 0
PSCL5 LOAD TRANSLATION ACCESS:      24790  HIT:      24790  MISS:          0  HIT %:        100  MISS %:          0   MPKI: 0
PSCL5 TRANSLATION FROM L1D PREFETCHER ACCESS:       4334  HIT:       4334  MISS:          0  HIT %:        100  MISS %:          0   MPKI: 0
PSCL5 PREFETCH  REQUESTED:          0  ISSUED:          0  USEFUL:          0  USELESS:          0
PSCL5 USEFUL LOAD PREFETCHES:          0 PREFETCH ISSUED TO LOWER LEVEL:          0  ACCURACY: -nan
PSCL5 TIMELY PREFETCHES:          0 LATE PREFETCHES: 0 DROPPED PREFETCHES: 0
PSCL5 PREFETCHES SAME FILL-ORIGIN LEVEL: 0 DIFFERENT FILL-ORIGIN LEVEL: 0

PSCL4 TOTAL     ACCESS:      29124  HIT:      29124  MISS:          0  HIT %:        100  MISS %:          0   MPKI: 0
PSCL4 LOAD TRANSLATION ACCESS:      24790  HIT:      24790  MISS:          0  HIT %:        100  MISS %:          0   MPKI: 0
PSCL4 TRANSLATION FROM L1D PREFETCHER ACCESS:       4334  HIT:       4334  MISS:          0  HIT %:        100  MISS %:          0   MPKI: 0
PSCL4 PREFETCH  REQUESTED:          0  ISSUED:          0  USEFUL:          0  USELESS:          0
PSCL4 USEFUL LOAD PREFETCHES:          0 PREFETCH ISSUED TO LOWER LEVEL:          0  ACCURACY: -nan
PSCL4 TIMELY PREFETCHES:          0 LATE PREFETCHES: 0 DROPPED PREFETCHES: 0
PSCL4 PREFETCHES SAME FILL-ORIGIN LEVEL: 0 DIFFERENT FILL-ORIGIN LEVEL: 0

PSCL3 TOTAL     ACCESS:      29124  HIT:      29124  MISS:          0  HIT %:        100  MISS %:          0   MPKI: 0
PSCL3 LOAD TRANSLATION ACCESS:      24790  HIT:      24790  MISS:          0  HIT %:        100  MISS %:          0   MPKI: 0
PSCL3 TRANSLATION FROM L1D PREFETCHER ACCESS:       4334  HIT:       4334  MISS:          0  HIT %:        100  MISS %:          0   MPKI: 0
PSCL3 PREFETCH  REQUESTED:          0  ISSUED:          0  USEFUL:          0  USELESS:          0
PSCL3 USEFUL LOAD PREFETCHES:          0 PREFETCH ISSUED TO LOWER LEVEL:          0  ACCURACY: -nan
PSCL3 TIMELY PREFETCHES:          0 LATE PREFETCHES: 0 DROPPED PREFETCHES: 0
PSCL3 PREFETCHES SAME FILL-ORIGIN LEVEL: 0 DIFFERENT FILL-ORIGIN LEVEL: 0

PSCL2 TOTAL     ACCESS:      29124  HIT:      24564  MISS:       4560  HIT %:    84.3428  MISS %:    15.6572   MPKI: 0.0456
PSCL2 LOAD TRANSLATION ACCESS:      25042  HIT:      20482  MISS:       4560  HIT %:    81.7906  MISS %:    18.2094   MPKI: 0.0456
PSCL2 TRANSLATION FROM L1D PREFETCHER ACCESS:       4082  HIT:       4082  MISS:          0  HIT %:        100  MISS %:          0   MPKI: 0
PSCL2 PREFETCH  REQUESTED:          0  ISSUED:          0  USEFUL:          0  USELESS:          0
PSCL2 USEFUL LOAD PREFETCHES:          0 PREFETCH ISSUED TO LOWER LEVEL:          0  ACCURACY: -nan
PSCL2 TIMELY PREFETCHES:          0 LATE PREFETCHES: 0 DROPPED PREFETCHES: 0
PSCL2 PREFETCHES SAME FILL-ORIGIN LEVEL: 0 DIFFERENT FILL-ORIGIN LEVEL: 0

LLC TOTAL     ACCESS:    7800220  HIT:    4821639  MISS:    2978581  HIT %:    61.8141  MISS %:    38.1859   MPKI: 29.7858
LLC LOAD      ACCESS:    3903575  HIT:    1847112  MISS:    2056463  HIT %:    47.3185  MISS %:    52.6815   MPKI: 20.5646
LLC RFO       ACCESS:     123911  HIT:      57401  MISS:      66510  HIT %:    46.3244  MISS %:    53.6756   MPKI: 0.6651
LLC PREFETCH  ACCESS:    3190263  HIT:    2355843  MISS:     834420  HIT %:    73.8448  MISS %:    26.1552   MPKI: 8.3442
AGUS PREFETCH L1 MISS: 0
LLC WRITEBACK ACCESS:     560687  HIT:     556326  MISS:       4361  HIT %:    99.2222  MISS %:   0.777796   MPKI: 0.04361
LLC LOAD TRANSLATION ACCESS:      17822  HIT:       3991  MISS:      13831  HIT %:    22.3937  MISS %:    77.6063   MPKI: 0.13831
LLC TRANSLATION FROM L1D PREFETCHER ACCESS:       3962  HIT:        966  MISS:       2996  HIT %:    24.3816  MISS %:    75.6184   MPKI: 0.02996
LLC PREFETCH  REQUESTED:          0  ISSUED:          0  USEFUL:     224528  USELESS:     615369
LLC USEFUL LOAD PREFETCHES:     224528 PREFETCH ISSUED TO LOWER LEVEL:     834420  ACCURACY: 26.9083
LLC TIMELY PREFETCHES:     224528 LATE PREFETCHES: 0 DROPPED PREFETCHES: 0
LLC PREFETCHES SAME FILL-ORIGIN LEVEL: 0 DIFFERENT FILL-ORIGIN LEVEL: 0
LLC AVERAGE MISS LATENCY: 154.563 cycles
LLC RQ	ACCESS:    4049271	FORWARD:          0	MERGED:          0	TO_CACHE:    4049271
LLC WQ	ACCESS:     560687	FORWARD:          0	MERGED:          0	TO_CACHE:     560687
LLC PQ	ACCESS:    3190263	FORWARD:          0	MERGED:          0	TO_CACHE:    3190263

LLC Dense regions hint to LLC: 0

RAW hits: 24698
Loads Generated: 37899739
Loads sent to L1D: 37875039
Stores Generated: 1443838
Stores sent to L1D: 1443842
Major fault: 0 Minor fault: 22021
Allocated PAGES: 22021
Prefetcher final stats
Training Unit Size: 244
Addr table size: 910734 910758


Triggers: 7108218
No Prediction: 1443507 20.3076
Stream end: 5561715
No translation: 1120625697 15765.2
Predictions: 6687616 94.0829


Stream divergence: 1420652 19.986
Stream divergence -- new stream: 0

DRAM Statistics
 CHANNEL 0
 RQ ROW_BUFFER_HIT:     956918  ROW_BUFFER_MISS:    2017262
 DBUS_CONGESTED:       2088
 WQ ROW_BUFFER_HIT:     140038  ROW_BUFFER_MISS:     328033  FULL:          0

 AVG_CONGESTED_CYCLE: 4
 All warmup complete: 2
Channel 0 Bank busy for read cycles: 0
Channel 0 Bank busy for write cycles: 0
Channel 0
Rank 0
0banks busy for read cycles: 70965067
0banks busy for write cycles: 212767
1banks busy for read cycles: 117055342
1banks busy for write cycles: 38563589
2banks busy for read cycles: 48147133
2banks busy for write cycles: 17316867
3banks busy for read cycles: 22120555
3banks busy for write cycles: 7255426
4banks busy for read cycles: 9561874
4banks busy for write cycles: 2784345
5banks busy for read cycles: 3518480
5banks busy for write cycles: 1023638
6banks busy for read cycles: 1160107
6banks busy for write cycles: 348748
7banks busy for read cycles: 421469
7banks busy for write cycles: 166425
8banks busy for read cycles: 638993
8banks busy for write cycles: 260176

CPU 0 Branch Prediction Accuracy: 96.822% MPKI: 4.71695 Average ROB Occupancy at Mispredict: 121.24
Branch types
NOT_BRANCH: 85157281 85.1573%
BRANCH_DIRECT_JUMP: 4499227 4.49923%
BRANCH_INDIRECT: 0 0%
BRANCH_CONDITIONAL: 10341465 10.3415%
BRANCH_DIRECT_CALL: 1016 0.001016%
BRANCH_INDIRECT_CALL: 0 0%
BRANCH_RETURN: 1016 0.001016%
BRANCH_OTHER: 0 0%

DRAM PAGES: 1048576
Allocated PAGES: 22021
