
*** ChampSim Multicore Out-of-Order Simulator ***

Warmup Instructions: 50000000
Simulation Instructions: 100000000
Number of CPUs: 1
LLC sets: 2048
LLC ways: 16
Off-chip DRAM Size: 4096 MB Channels: 1 Width: 64-bit Data Rate: 6400 MT/s
CPU 0 runs ./traces/GAP/SUBSET/sssp-5.trace.gz
.gz
CPU 0 Bimodal branch predictor
BTB has LRU replacement policy
ITLB has LRU replacement policy
DTLB has LRU replacement policy
STLB has LRU replacement policy
L1I has LRU replacement policy
L1D has LRU replacement policy
L2C has LRU replacement policy
LLC has LRU replacement policy
Heartbeat CPU 0 instructions: 10000001 cycles: 3239843 heartbeat IPC: 3.08657 cumulative IPC: 3.08657 (Simulation time: 0 hr 2 min 49 sec) 
Heartbeat CPU 0 instructions: 20000000 cycles: 6501967 heartbeat IPC: 3.06549 cumulative IPC: 3.07599 (Simulation time: 0 hr 6 min 14 sec) 
Heartbeat CPU 0 instructions: 30000001 cycles: 9788543 heartbeat IPC: 3.04268 cumulative IPC: 3.06481 (Simulation time: 0 hr 9 min 44 sec) 
Heartbeat CPU 0 instructions: 40000000 cycles: 13095573 heartbeat IPC: 3.02386 cumulative IPC: 3.05447 (Simulation time: 0 hr 13 min 18 sec) 
Heartbeat CPU 0 instructions: 50000001 cycles: 16408071 heartbeat IPC: 3.01887 cumulative IPC: 3.04728 (Simulation time: 0 hr 16 min 51 sec) 

Warmup complete CPU 0 instructions: 50000001 cycles: 16408071 (Simulation time: 0 hr 16 min 51 sec) 

Heartbeat CPU 0 instructions: 60000000 cycles: 47795899 heartbeat IPC: 0.318595 cumulative IPC: 0.318595 (Simulation time: 0 hr 17 min 40 sec) 
Heartbeat CPU 0 instructions: 70000001 cycles: 78300214 heartbeat IPC: 0.327823 cumulative IPC: 0.323143 (Simulation time: 0 hr 18 min 30 sec) 
Heartbeat CPU 0 instructions: 80000000 cycles: 108252378 heartbeat IPC: 0.333866 cumulative IPC: 0.32664 (Simulation time: 0 hr 19 min 18 sec) 
Heartbeat CPU 0 instructions: 90000001 cycles: 137517661 heartbeat IPC: 0.341702 cumulative IPC: 0.330279 (Simulation time: 0 hr 20 min 9 sec) 
Heartbeat CPU 0 instructions: 100000000 cycles: 166188856 heartbeat IPC: 0.348782 cumulative IPC: 0.333821 (Simulation time: 0 hr 20 min 59 sec) 
Heartbeat CPU 0 instructions: 110000002 cycles: 194200020 heartbeat IPC: 0.357001 cumulative IPC: 0.337473 (Simulation time: 0 hr 21 min 50 sec) 
Heartbeat CPU 0 instructions: 120000000 cycles: 221636472 heartbeat IPC: 0.364479 cumulative IPC: 0.341083 (Simulation time: 0 hr 22 min 40 sec) 
Heartbeat CPU 0 instructions: 130000000 cycles: 249178549 heartbeat IPC: 0.363081 cumulative IPC: 0.343686 (Simulation time: 0 hr 23 min 30 sec) 
Heartbeat CPU 0 instructions: 140000000 cycles: 276402013 heartbeat IPC: 0.36733 cumulative IPC: 0.346162 (Simulation time: 0 hr 24 min 21 sec) 
Heartbeat CPU 0 instructions: 150000000 cycles: 303309209 heartbeat IPC: 0.371648 cumulative IPC: 0.348552 (Simulation time: 0 hr 25 min 12 sec) 
Finished CPU 0 instructions: 100000003 cycles: 286901139 cumulative IPC: 0.348552 (Simulation time: 0 hr 25 min 12 sec) 

ChampSim completed all CPUs

Region of Interest Statistics

CPU 0 cumulative IPC: 0.348552 instructions: 100000003 cycles: 286901139
ITLB TOTAL     ACCESS:   12073763  HIT:   12073763  MISS:          0  HIT %:        100  MISS %:          0   MPKI: 0
ITLB LOAD TRANSLATION ACCESS:   12073763  HIT:   12073763  MISS:          0  HIT %:        100  MISS %:          0   MPKI: 0
ITLB PREFETCH  REQUESTED:          0  ISSUED:          0  USEFUL:          0  USELESS:          0
ITLB USEFUL LOAD PREFETCHES:          0 PREFETCH ISSUED TO LOWER LEVEL:          0  ACCURACY: -nan
ITLB TIMELY PREFETCHES:          0 LATE PREFETCHES: 0 DROPPED PREFETCHES: 0
ITLB PREFETCHES SAME FILL-ORIGIN LEVEL: 0 DIFFERENT FILL-ORIGIN LEVEL: 0
ITLB AVERAGE MISS LATENCY: -nan cycles
ITLB RQ	ACCESS:   12501836	FORWARD:          0	MERGED:     428074	TO_CACHE:   12073762

DTLB TOTAL     ACCESS:   21114381  HIT:   19130133  MISS:    1984248  HIT %:    90.6024  MISS %:    9.39761   MPKI: 19.8425
DTLB LOAD TRANSLATION ACCESS:   21114381  HIT:   19130133  MISS:    1984248  HIT %:    90.6024  MISS %:    9.39761   MPKI: 19.8425
DTLB PREFETCH  REQUESTED:          0  ISSUED:          0  USEFUL:          0  USELESS:          0
DTLB USEFUL LOAD PREFETCHES:          0 PREFETCH ISSUED TO LOWER LEVEL:          0  ACCURACY: -nan
DTLB TIMELY PREFETCHES:          0 LATE PREFETCHES: 0 DROPPED PREFETCHES: 0
DTLB PREFETCHES SAME FILL-ORIGIN LEVEL: 0 DIFFERENT FILL-ORIGIN LEVEL: 0
DTLB AVERAGE MISS LATENCY: 11.9256 cycles
DTLB RQ	ACCESS:   22360692	FORWARD:          0	MERGED:    1162584	TO_CACHE:   21198108

STLB TOTAL     ACCESS:    6226623  HIT:    6199949  MISS:      26674  HIT %:    99.5716  MISS %:   0.428386   MPKI: 0.26674
STLB LOAD TRANSLATION ACCESS:    1984248  HIT:    1957574  MISS:      26674  HIT %:    98.6557  MISS %:    1.34429   MPKI: 0.26674
STLB TRANSLATION FROM L1D PREFETCHER ACCESS:    4242375  HIT:    4242375  MISS:          0  HIT %:        100  MISS %:          0   MPKI: 0
STLB PREFETCH  REQUESTED:          0  ISSUED:          0  USEFUL:          0  USELESS:          0
STLB USEFUL LOAD PREFETCHES:          0 PREFETCH ISSUED TO LOWER LEVEL:          0  ACCURACY: -nan
STLB TIMELY PREFETCHES:          0 LATE PREFETCHES: 0 DROPPED PREFETCHES: 0
STLB PREFETCHES SAME FILL-ORIGIN LEVEL: 0 DIFFERENT FILL-ORIGIN LEVEL: 0
STLB AVERAGE MISS LATENCY: 202.211 cycles
STLB RQ	ACCESS:    7460947	FORWARD:          0	MERGED:    1234324	TO_CACHE:    6226623

STLB Hit, L1D data hit: 0
STLB Hit, L2C data hit: 0
STLB Hit, LLC data hit: 0
STLB Hit, LLC data miss: 0
STLB STLB hints to L2: 0
L1D TOTAL     ACCESS:   27331333  HIT:   17858904  MISS:    9472429  HIT %:    65.3422  MISS %:    34.6578   MPKI: 94.7243
L1D LOAD      ACCESS:   20820096  HIT:   16425481  MISS:    4394615  HIT %:    78.8924  MISS %:    21.1076   MPKI: 43.9461
L1D RFO       ACCESS:    1329876  HIT:     991192  MISS:     338684  HIT %:    74.5327  MISS %:    25.4673   MPKI: 3.38684
L1D PREFETCH  ACCESS:    5181361  HIT:     442231  MISS:    4739130  HIT %:    8.53504  MISS %:     91.465   MPKI: 47.3913
AGUS PREFETCH L1 MISS: 0
L1D PREFETCH  REQUESTED:   10955696  ISSUED:   10953398  USEFUL:     692033  USELESS:    4046992
L1D USEFUL LOAD PREFETCHES:     692033 PREFETCH ISSUED TO LOWER LEVEL:    4834590  ACCURACY: 14.3142
L1D TIMELY PREFETCHES:     692033 LATE PREFETCHES: 94395 DROPPED PREFETCHES: 0
L1D PREFETCHES SAME FILL-ORIGIN LEVEL: 4834590 DIFFERENT FILL-ORIGIN LEVEL: 0
L1D AVERAGE MISS LATENCY: 96.8156 cycles
L1D RQ	ACCESS:   37875131	FORWARD:          0	MERGED:   16956356	TO_CACHE:   20917362
L1D WQ	ACCESS:    1443842	FORWARD:       1413	MERGED:        512	TO_CACHE:    1443330
L1D PQ	ACCESS:    5476699	FORWARD:          0	MERGED:          0	TO_CACHE:    5476699

L1D UNIQUE REGIONS ACCESSED: 0
L1D REGIONS CONFLICTS: 0
L1D Cross Page Prefetch Requests: 0
L1D Same Page Prefetch Requests: 8079753
L1D ROI Sum of L1D PQ occupancy: 71186073
L1D PREFETCHES PUSHED FROM L2C: 0
L1I TOTAL     ACCESS:   12501836  HIT:   12501836  MISS:          0  HIT %:        100  MISS %:          0   MPKI: 0
L1I LOAD      ACCESS:   12501836  HIT:   12501836  MISS:          0  HIT %:        100  MISS %:          0   MPKI: 0
L1I PREFETCH  REQUESTED:          0  ISSUED:          0  USEFUL:          0  USELESS:          0
L1I USEFUL LOAD PREFETCHES:          0 PREFETCH ISSUED TO LOWER LEVEL:          0  ACCURACY: -nan
L1I TIMELY PREFETCHES:          0 LATE PREFETCHES: 0 DROPPED PREFETCHES: 0
L1I PREFETCHES SAME FILL-ORIGIN LEVEL: 0 DIFFERENT FILL-ORIGIN LEVEL: 0
L1I AVERAGE MISS LATENCY: -nan cycles
L1I RQ	ACCESS:   20185207	FORWARD:          0	MERGED:    7683371	TO_CACHE:   12501836

BTB TOTAL     ACCESS:   14384211  HIT:   14384089  MISS:        122  HIT %:    99.9992  MISS %: 0.000848152   MPKI: 0.00122
BTB BRANCH_DIRECT_JUMP	ACCESS:    4499227  HIT:    4499194  MISS:         33
BTB BRANCH_INDIRECT	ACCESS:          0  HIT:          0  MISS:          0
BTB BRANCH_CONDITIONAL	ACCESS:    9882952  HIT:    9882878  MISS:         74
BTB BRANCH_DIRECT_CALL	ACCESS:       1016  HIT:       1011  MISS:          5
BTB BRANCH_INDIRECT_CALL	ACCESS:          0  HIT:          0  MISS:          0
BTB BRANCH_RETURN	ACCESS:       1016  HIT:       1006  MISS:         10
BTB BRANCH_OTHER ACCESS:          0  HIT:          0  MISS:          0

L2C TOTAL     ACCESS:   11900388  HIT:    3855781  MISS:    8044607  HIT %:    32.4005  MISS %:    67.5995   MPKI: 80.4461
L2C LOAD      ACCESS:    4300217  HIT:     678958  MISS:    3621259  HIT %:    15.7889  MISS %:    84.2111   MPKI: 36.2126
L2C DATA LOAD MPKI: 36.2126
L2C INSTRUCTION LOAD MPKI: 0
L2C RFO       ACCESS:     338652  HIT:     211282  MISS:     127370  HIT %:    62.3891  MISS %:    37.6109   MPKI: 1.2737
L2C PREFETCH  ACCESS:    6310493  HIT:    2037290  MISS:    4273203  HIT %:    32.2842  MISS %:    67.7158   MPKI: 42.732
AGUS PREFETCH L1 MISS: 0
L2C DATA PREFETCH MPKI: 42.732
L2C INSTRUCTION PREFETCH MPKI: 0
L2C WRITEBACK ACCESS:     919869  HIT:     916987  MISS:       2882  HIT %:    99.6867  MISS %:   0.313305   MPKI: 0.02882
L2C LOAD TRANSLATION ACCESS:      31157  HIT:      11264  MISS:      19893  HIT %:    36.1524  MISS %:    63.8476   MPKI: 0.19893
L2C PREFETCH  REQUESTED:    1707892  ISSUED:    1707331  USEFUL:     107465  USELESS:    4166276
L2C USEFUL LOAD PREFETCHES:     107465 PREFETCH ISSUED TO LOWER LEVEL:    4282522  ACCURACY: 2.50939
L2C TIMELY PREFETCHES:     107465 LATE PREFETCHES: 9317 DROPPED PREFETCHES: 0
L2C PREFETCHES SAME FILL-ORIGIN LEVEL: 578699 DIFFERENT FILL-ORIGIN LEVEL: 0
L2C AVERAGE MISS LATENCY: 110.719 cycles
L2C RQ	ACCESS:    4670060	FORWARD:          0	MERGED:          0	TO_CACHE:    4670026
L2C WQ	ACCESS:     919869	FORWARD:         35	MERGED:          0	TO_CACHE:     919869
L2C PQ	ACCESS:    6540858	FORWARD:          0	MERGED:     138798	TO_CACHE:    6402059

L2C Instructions Evicting Data 0
L2C Translations Evicting Data 19823
L2C Data Evicting Data 8002025
L2C Instructions Evicting Instructions 0
L2C Translations Evicting Instructions 0
L2C Data Evicting Instructions 0
L2C Instructions Evicting Translations 0
L2C Translations Evicting Translations 70
L2C Data Evicting Translations 19807
L2C Dense regions hint from L2: 0
PSCL5 TOTAL     ACCESS:      26674  HIT:      26674  MISS:          0  HIT %:        100  MISS %:          0   MPKI: 0
PSCL5 LOAD TRANSLATION ACCESS:      26674  HIT:      26674  MISS:          0  HIT %:        100  MISS %:          0   MPKI: 0
PSCL5 PREFETCH  REQUESTED:          0  ISSUED:          0  USEFUL:          0  USELESS:          0
PSCL5 USEFUL LOAD PREFETCHES:          0 PREFETCH ISSUED TO LOWER LEVEL:          0  ACCURACY: -nan
PSCL5 TIMELY PREFETCHES:          0 LATE PREFETCHES: 0 DROPPED PREFETCHES: 0
PSCL5 PREFETCHES SAME FILL-ORIGIN LEVEL: 0 DIFFERENT FILL-ORIGIN LEVEL: 0

PSCL4 TOTAL     ACCESS:      26674  HIT:      26674  MISS:          0  HIT %:        100  MISS %:          0   MPKI: 0
PSCL4 LOAD TRANSLATION ACCESS:      26674  HIT:      26674  MISS:          0  HIT %:        100  MISS %:          0   MPKI: 0
PSCL4 PREFETCH  REQUESTED:          0  ISSUED:          0  USEFUL:          0  USELESS:          0
PSCL4 USEFUL LOAD PREFETCHES:          0 PREFETCH ISSUED TO LOWER LEVEL:          0  ACCURACY: -nan
PSCL4 TIMELY PREFETCHES:          0 LATE PREFETCHES: 0 DROPPED PREFETCHES: 0
PSCL4 PREFETCHES SAME FILL-ORIGIN LEVEL: 0 DIFFERENT FILL-ORIGIN LEVEL: 0

PSCL3 TOTAL     ACCESS:      26674  HIT:      26674  MISS:          0  HIT %:        100  MISS %:          0   MPKI: 0
PSCL3 LOAD TRANSLATION ACCESS:      26674  HIT:      26674  MISS:          0  HIT %:        100  MISS %:          0   MPKI: 0
PSCL3 PREFETCH  REQUESTED:          0  ISSUED:          0  USEFUL:          0  USELESS:          0
PSCL3 USEFUL LOAD PREFETCHES:          0 PREFETCH ISSUED TO LOWER LEVEL:          0  ACCURACY: -nan
PSCL3 TIMELY PREFETCHES:          0 LATE PREFETCHES: 0 DROPPED PREFETCHES: 0
PSCL3 PREFETCHES SAME FILL-ORIGIN LEVEL: 0 DIFFERENT FILL-ORIGIN LEVEL: 0

PSCL2 TOTAL     ACCESS:      26674  HIT:      22189  MISS:       4485  HIT %:    83.1859  MISS %:    16.8141   MPKI: 0.04485
PSCL2 LOAD TRANSLATION ACCESS:      26674  HIT:      22189  MISS:       4485  HIT %:    83.1859  MISS %:    16.8141   MPKI: 0.04485
PSCL2 PREFETCH  REQUESTED:          0  ISSUED:          0  USEFUL:          0  USELESS:          0
PSCL2 USEFUL LOAD PREFETCHES:          0 PREFETCH ISSUED TO LOWER LEVEL:          0  ACCURACY: -nan
PSCL2 TIMELY PREFETCHES:          0 LATE PREFETCHES: 0 DROPPED PREFETCHES: 0
PSCL2 PREFETCHES SAME FILL-ORIGIN LEVEL: 0 DIFFERENT FILL-ORIGIN LEVEL: 0

LLC TOTAL     ACCESS:    8606632  HIT:    4260787  MISS:    4345845  HIT %:    49.5059  MISS %:    50.4941   MPKI: 43.4584
LLC LOAD      ACCESS:    3611942  HIT:    1862921  MISS:    1749021  HIT %:    51.5767  MISS %:    48.4233   MPKI: 17.4902
LLC RFO       ACCESS:     127367  HIT:      57454  MISS:      69913  HIT %:     45.109  MISS %:     54.891   MPKI: 0.69913
LLC PREFETCH  ACCESS:    4282519  HIT:    1778274  MISS:    2504245  HIT %:     41.524  MISS %:     58.476   MPKI: 25.0424
AGUS PREFETCH L1 MISS: 0
LLC WRITEBACK ACCESS:     564911  HIT:     558677  MISS:       6234  HIT %:    98.8965  MISS %:    1.10354   MPKI: 0.06234
LLC LOAD TRANSLATION ACCESS:      19893  HIT:       3461  MISS:      16432  HIT %:    17.3981  MISS %:    82.6019   MPKI: 0.16432
LLC PREFETCH  REQUESTED:          0  ISSUED:          0  USEFUL:     322609  USELESS:    2183237
LLC USEFUL LOAD PREFETCHES:     322609 PREFETCH ISSUED TO LOWER LEVEL:    2504247  ACCURACY: 12.8825
LLC TIMELY PREFETCHES:     322609 LATE PREFETCHES: 0 DROPPED PREFETCHES: 0
LLC PREFETCHES SAME FILL-ORIGIN LEVEL: 0 DIFFERENT FILL-ORIGIN LEVEL: 0
LLC AVERAGE MISS LATENCY: 149.301 cycles
LLC RQ	ACCESS:    3759205	FORWARD:          0	MERGED:          0	TO_CACHE:    3759202
LLC WQ	ACCESS:     564911	FORWARD:          4	MERGED:          0	TO_CACHE:     564911
LLC PQ	ACCESS:    4282522	FORWARD:          0	MERGED:          0	TO_CACHE:    4282521

LLC Dense regions hint to LLC: 0

RAW hits: 24603
Loads Generated: 37899737
Loads sent to L1D: 37875131
Stores Generated: 1443838
Stores sent to L1D: 1443842
Major fault: 0 Minor fault: 22021
Allocated PAGES: 22021

stream: 
stream:times selected: 9865584
stream:pref_filled: 5654770
stream:pref_useful: 236644
stream:pref_late: 96198
stream:misses: 1322936
stream:misses_by_poll: 0

CS: 
CS:times selected: 1807385
CS:pref_filled: 859846
CS:pref_useful: 805444
CS:pref_late: 18824
CS:misses: 88576
CS:misses_by_poll: 687

CPLX: 
CPLX:times selected: 8021174
CPLX:pref_filled: 188980
CPLX:pref_useful: 13634
CPLX:pref_late: 2668
CPLX:misses: 4761532
CPLX:misses_by_poll: 95

NL_L1: 
NL:times selected: 41457
NL:pref_filled: 34649
NL:pref_useful: 1006
NL:pref_late: 213
NL:misses: 36977
NL:misses_by_poll: 5

total selections: 19735600
total_filled: 4739130
total_useful: 692033
total_late: 120878
total_polluted: 787
total_misses_after_warmup: 4491881
conflicts: 45143

test: 2968311

DRAM Statistics
 CHANNEL 0
 RQ ROW_BUFFER_HIT:    1923686  ROW_BUFFER_MISS:    2415887
 DBUS_CONGESTED:       5144
 WQ ROW_BUFFER_HIT:     133210  ROW_BUFFER_MISS:     349828  FULL:          0

 AVG_CONGESTED_CYCLE: 4
 All warmup complete: 2
Channel 0 Bank busy for read cycles: 0
Channel 0 Bank busy for write cycles: 0
Channel 0
Rank 0
0banks busy for read cycles: 37314202
0banks busy for write cycles: 163238
1banks busy for read cycles: 69348086
1banks busy for write cycles: 26478746
2banks busy for read cycles: 47759573
2banks busy for write cycles: 16296068
3banks busy for read cycles: 31478864
3banks busy for write cycles: 8866756
4banks busy for read cycles: 21304305
4banks busy for write cycles: 4381698
5banks busy for read cycles: 11978477
5banks busy for write cycles: 1905473
6banks busy for read cycles: 5455179
6banks busy for write cycles: 752842
7banks busy for read cycles: 1938053
7banks busy for write cycles: 281922
8banks busy for read cycles: 999299
8banks busy for write cycles: 198359

CPU 0 Branch Prediction Accuracy: 96.822% MPKI: 4.71695 Average ROB Occupancy at Mispredict: 120.686
Branch types
NOT_BRANCH: 85157279 85.1573%
BRANCH_DIRECT_JUMP: 4499227 4.49923%
BRANCH_INDIRECT: 0 0%
BRANCH_CONDITIONAL: 10341465 10.3415%
BRANCH_DIRECT_CALL: 1016 0.001016%
BRANCH_INDIRECT_CALL: 0 0%
BRANCH_RETURN: 1016 0.001016%
BRANCH_OTHER: 0 0%

DRAM PAGES: 1048576
Allocated PAGES: 22021
