
*** ChampSim Multicore Out-of-Order Simulator ***

Warmup Instructions: 50000000
Simulation Instructions: 100000000
Number of CPUs: 1
LLC sets: 2048
LLC ways: 16
Off-chip DRAM Size: 4096 MB Channels: 1 Width: 64-bit Data Rate: 6400 MT/s
CPU 0 runs ./traces/GAP/SUBSET/sssp-5.trace.gz
.gz
CPU 0 Bimodal branch predictor
BTB has LRU replacement policy
ITLB has LRU replacement policy
DTLB has LRU replacement policy
STLB has LRU replacement policy
L1I has LRU replacement policy
L1D has LRU replacement policy
L2C has LRU replacement policy
LLC has LRU replacement policy
Heartbeat CPU 0 instructions: 10000001 cycles: 3243200 heartbeat IPC: 3.08337 cumulative IPC: 3.08337 (Simulation time: 0 hr 1 min 21 sec) 
Heartbeat CPU 0 instructions: 20000000 cycles: 6506058 heartbeat IPC: 3.0648 cumulative IPC: 3.07406 (Simulation time: 0 hr 3 min 22 sec) 
Heartbeat CPU 0 instructions: 30000001 cycles: 9792051 heartbeat IPC: 3.04322 cumulative IPC: 3.06371 (Simulation time: 0 hr 5 min 35 sec) 
Heartbeat CPU 0 instructions: 40000000 cycles: 13097672 heartbeat IPC: 3.02515 cumulative IPC: 3.05398 (Simulation time: 0 hr 7 min 56 sec) 
Heartbeat CPU 0 instructions: 50000001 cycles: 16408395 heartbeat IPC: 3.02049 cumulative IPC: 3.04722 (Simulation time: 0 hr 10 min 15 sec) 

Warmup complete CPU 0 instructions: 50000001 cycles: 16408395 (Simulation time: 0 hr 10 min 15 sec) 

Heartbeat CPU 0 instructions: 60000000 cycles: 49345278 heartbeat IPC: 0.303611 cumulative IPC: 0.303611 (Simulation time: 0 hr 12 min 33 sec) 
Heartbeat CPU 0 instructions: 70000001 cycles: 81397503 heartbeat IPC: 0.311991 cumulative IPC: 0.307744 (Simulation time: 0 hr 14 min 53 sec) 
Heartbeat CPU 0 instructions: 80000000 cycles: 112921992 heartbeat IPC: 0.317214 cumulative IPC: 0.310837 (Simulation time: 0 hr 17 min 6 sec) 
Heartbeat CPU 0 instructions: 90000001 cycles: 143813947 heartbeat IPC: 0.323709 cumulative IPC: 0.313958 (Simulation time: 0 hr 19 min 33 sec) 
Heartbeat CPU 0 instructions: 100000000 cycles: 174151019 heartbeat IPC: 0.32963 cumulative IPC: 0.316972 (Simulation time: 0 hr 21 min 59 sec) 
Heartbeat CPU 0 instructions: 110000002 cycles: 203957523 heartbeat IPC: 0.335497 cumulative IPC: 0.319916 (Simulation time: 0 hr 24 min 30 sec) 
Heartbeat CPU 0 instructions: 120000000 cycles: 233208052 heartbeat IPC: 0.341874 cumulative IPC: 0.322879 (Simulation time: 0 hr 27 min 3 sec) 
Heartbeat CPU 0 instructions: 130000000 cycles: 262397775 heartbeat IPC: 0.342586 cumulative IPC: 0.325217 (Simulation time: 0 hr 29 min 32 sec) 
Heartbeat CPU 0 instructions: 140000000 cycles: 291342840 heartbeat IPC: 0.345482 cumulative IPC: 0.327351 (Simulation time: 0 hr 32 min 7 sec) 
Heartbeat CPU 0 instructions: 150000000 cycles: 320068725 heartbeat IPC: 0.348118 cumulative IPC: 0.329315 (Simulation time: 0 hr 34 min 46 sec) 
Finished CPU 0 instructions: 100000003 cycles: 303660331 cumulative IPC: 0.329315 (Simulation time: 0 hr 34 min 46 sec) 

ChampSim completed all CPUs

Region of Interest Statistics

CPU 0 cumulative IPC: 0.329315 instructions: 100000003 cycles: 303660331
ITLB TOTAL     ACCESS:   12126260  HIT:   12126260  MISS:          0  HIT %:        100  MISS %:          0   MPKI: 0
ITLB LOAD TRANSLATION ACCESS:   12126260  HIT:   12126260  MISS:          0  HIT %:        100  MISS %:          0   MPKI: 0
ITLB PREFETCH  REQUESTED:          0  ISSUED:          0  USEFUL:          0  USELESS:          0
ITLB USEFUL LOAD PREFETCHES:          0 PREFETCH ISSUED TO LOWER LEVEL:          0  ACCURACY: -nan
ITLB TIMELY PREFETCHES:          0 LATE PREFETCHES: 0 DROPPED PREFETCHES: 0
ITLB PREFETCHES SAME FILL-ORIGIN LEVEL: 0 DIFFERENT FILL-ORIGIN LEVEL: 0
ITLB AVERAGE MISS LATENCY: -nan cycles
ITLB RQ	ACCESS:   12554323	FORWARD:          0	MERGED:     428064	TO_CACHE:   12126259

DTLB TOTAL     ACCESS:   21017575  HIT:   19033333  MISS:    1984242  HIT %:    90.5591  MISS %:    9.44087   MPKI: 19.8424
DTLB LOAD TRANSLATION ACCESS:   21017575  HIT:   19033333  MISS:    1984242  HIT %:    90.5591  MISS %:    9.44087   MPKI: 19.8424
DTLB PREFETCH  REQUESTED:          0  ISSUED:          0  USEFUL:          0  USELESS:          0
DTLB USEFUL LOAD PREFETCHES:          0 PREFETCH ISSUED TO LOWER LEVEL:          0  ACCURACY: -nan
DTLB TIMELY PREFETCHES:          0 LATE PREFETCHES: 0 DROPPED PREFETCHES: 0
DTLB PREFETCHES SAME FILL-ORIGIN LEVEL: 0 DIFFERENT FILL-ORIGIN LEVEL: 0
DTLB AVERAGE MISS LATENCY: 11.7927 cycles
DTLB RQ	ACCESS:   22412145	FORWARD:          0	MERGED:    1323762	TO_CACHE:   21088383

STLB TOTAL     ACCESS:    6700108  HIT:    6671917  MISS:      28191  HIT %:    99.5792  MISS %:   0.420754   MPKI: 0.28191
STLB LOAD TRANSLATION ACCESS:    1984242  HIT:    1959323  MISS:      24919  HIT %:    98.7442  MISS %:    1.25584   MPKI: 0.24919
STLB TRANSLATION FROM L1D PREFETCHER ACCESS:    4715866  HIT:    4712594  MISS:       3272  HIT %:    99.9306  MISS %:  0.0693828   MPKI: 0.03272
STLB PREFETCH  REQUESTED:          0  ISSUED:          0  USEFUL:       2099  USELESS:       1161
STLB USEFUL LOAD PREFETCHES:       2099 PREFETCH ISSUED TO LOWER LEVEL:          0  ACCURACY: inf
STLB TIMELY PREFETCHES:       2099 LATE PREFETCHES: 142 DROPPED PREFETCHES: 0
STLB PREFETCHES SAME FILL-ORIGIN LEVEL: 0 DIFFERENT FILL-ORIGIN LEVEL: 0
STLB AVERAGE MISS LATENCY: 226.56 cycles
STLB RQ	ACCESS:    9941520	FORWARD:          0	MERGED:    3241104	TO_CACHE:    6700416

STLB Hit, L1D data hit: 0
STLB Hit, L2C data hit: 0
STLB Hit, LLC data hit: 0
STLB Hit, LLC data miss: 0
STLB STLB hints to L2: 0
L1D TOTAL     ACCESS:   29044475  HIT:   17151560  MISS:   11892915  HIT %:    59.0527  MISS %:    40.9473   MPKI: 118.929
L1D LOAD      ACCESS:   20078176  HIT:   15702182  MISS:    4375994  HIT %:    78.2052  MISS %:    21.7948   MPKI: 43.7599
L1D RFO       ACCESS:    1330188  HIT:     976170  MISS:     354018  HIT %:    73.3859  MISS %:    26.6141   MPKI: 3.54018
L1D PREFETCH  ACCESS:    7636111  HIT:     473208  MISS:    7162903  HIT %:    6.19698  MISS %:     93.803   MPKI: 71.629
AGUS PREFETCH L1 MISS: 0
L1D PREFETCH  REQUESTED:   17284816  ISSUED:   16023087  USEFUL:     754394  USELESS:    6408359
L1D USEFUL LOAD PREFETCHES:     754394 PREFETCH ISSUED TO LOWER LEVEL:    7245727  ACCURACY: 10.4116
L1D TIMELY PREFETCHES:     754394 LATE PREFETCHES: 82822 DROPPED PREFETCHES: 0
L1D PREFETCHES SAME FILL-ORIGIN LEVEL: 7245727 DIFFERENT FILL-ORIGIN LEVEL: 0
L1D AVERAGE MISS LATENCY: 102.203 cycles
L1D RQ	ACCESS:   37874880	FORWARD:          0	MERGED:   16904759	TO_CACHE:   20968816
L1D WQ	ACCESS:    1443842	FORWARD:       1307	MERGED:        513	TO_CACHE:    1443329
L1D PQ	ACCESS:    8065809	FORWARD:          0	MERGED:     108529	TO_CACHE:    7957278

L1D UNIQUE REGIONS ACCESSED: 0
L1D REGIONS CONFLICTS: 0
L1D Cross Page Prefetch Requests: 3599938
L1D Same Page Prefetch Requests: 8069035
L1D ROI Sum of L1D PQ occupancy: 116231079
L1D PREFETCHES PUSHED FROM L2C: 0
L1I TOTAL     ACCESS:   12554323  HIT:   12554323  MISS:          0  HIT %:        100  MISS %:          0   MPKI: 0
L1I LOAD      ACCESS:   12554323  HIT:   12554323  MISS:          0  HIT %:        100  MISS %:          0   MPKI: 0
L1I PREFETCH  REQUESTED:          0  ISSUED:          0  USEFUL:          0  USELESS:          0
L1I USEFUL LOAD PREFETCHES:          0 PREFETCH ISSUED TO LOWER LEVEL:          0  ACCURACY: -nan
L1I TIMELY PREFETCHES:          0 LATE PREFETCHES: 0 DROPPED PREFETCHES: 0
L1I PREFETCHES SAME FILL-ORIGIN LEVEL: 0 DIFFERENT FILL-ORIGIN LEVEL: 0
L1I AVERAGE MISS LATENCY: -nan cycles
L1I RQ	ACCESS:   20262734	FORWARD:          0	MERGED:    7708411	TO_CACHE:   12554323

BTB TOTAL     ACCESS:   14384211  HIT:   14384089  MISS:        122  HIT %:    99.9992  MISS %: 0.000848152   MPKI: 0.00122
BTB BRANCH_DIRECT_JUMP	ACCESS:    4499227  HIT:    4499194  MISS:         33
BTB BRANCH_INDIRECT	ACCESS:          0  HIT:          0  MISS:          0
BTB BRANCH_CONDITIONAL	ACCESS:    9882952  HIT:    9882878  MISS:         74
BTB BRANCH_DIRECT_CALL	ACCESS:       1016  HIT:       1011  MISS:          5
BTB BRANCH_INDIRECT_CALL	ACCESS:          0  HIT:          0  MISS:          0
BTB BRANCH_RETURN	ACCESS:       1016  HIT:       1006  MISS:         10
BTB BRANCH_OTHER ACCESS:          0  HIT:          0  MISS:          0

L2C TOTAL     ACCESS:   12896904  HIT:    2840665  MISS:   10056239  HIT %:    22.0259  MISS %:    77.9741   MPKI: 100.562
L2C LOAD      ACCESS:    4293165  HIT:     625870  MISS:    3667295  HIT %:    14.5783  MISS %:    85.4217   MPKI: 36.6729
L2C DATA LOAD MPKI: 36.6729
L2C INSTRUCTION LOAD MPKI: 0
L2C RFO       ACCESS:     354010  HIT:     212466  MISS:     141544  HIT %:    60.0169  MISS %:    39.9831   MPKI: 1.41544
L2C PREFETCH  ACCESS:    7245715  HIT:    1020672  MISS:    6225043  HIT %:    14.0866  MISS %:    85.9134   MPKI: 62.2504
AGUS PREFETCH L1 MISS: 0
L2C DATA PREFETCH MPKI: 62.2504
L2C INSTRUCTION PREFETCH MPKI: 0
L2C WRITEBACK ACCESS:     971297  HIT:     970290  MISS:       1007  HIT %:    99.8963  MISS %:   0.103676   MPKI: 0.01007
L2C LOAD TRANSLATION ACCESS:      29094  HIT:      10888  MISS:      18206  HIT %:    37.4235  MISS %:    62.5765   MPKI: 0.18206
L2C TRANSLATION FROM L1D PREFETCHER ACCESS:       3623  HIT:        479  MISS:       3144  HIT %:    13.2211  MISS %:    86.7789   MPKI: 0.03144
L2C PREFETCH  REQUESTED:          0  ISSUED:          0  USEFUL:     160721  USELESS:    6067551
L2C USEFUL LOAD PREFETCHES:     160721 PREFETCH ISSUED TO LOWER LEVEL:    6225045  ACCURACY: 2.58184
L2C TIMELY PREFETCHES:     160721 LATE PREFETCHES: 0 DROPPED PREFETCHES: 0
L2C PREFETCHES SAME FILL-ORIGIN LEVEL: 0 DIFFERENT FILL-ORIGIN LEVEL: 0
L2C AVERAGE MISS LATENCY: 102.968 cycles
L2C RQ	ACCESS:    4679909	FORWARD:          0	MERGED:          0	TO_CACHE:    4679894
L2C WQ	ACCESS:     971297	FORWARD:         25	MERGED:          0	TO_CACHE:     971297
L2C PQ	ACCESS:    7245727	FORWARD:          0	MERGED:          0	TO_CACHE:    7245717

L2C Instructions Evicting Data 0
L2C Translations Evicting Data 21283
L2C Data Evicting Data 10012607
L2C Instructions Evicting Instructions 0
L2C Translations Evicting Instructions 0
L2C Data Evicting Instructions 0
L2C Instructions Evicting Translations 0
L2C Translations Evicting Translations 67
L2C Data Evicting Translations 21275
L2C Dense regions hint from L2: 0
PSCL5 TOTAL     ACCESS:      28191  HIT:      28191  MISS:          0  HIT %:        100  MISS %:          0   MPKI: 0
PSCL5 LOAD TRANSLATION ACCESS:      24777  HIT:      24777  MISS:          0  HIT %:        100  MISS %:          0   MPKI: 0
PSCL5 TRANSLATION FROM L1D PREFETCHER ACCESS:       3414  HIT:       3414  MISS:          0  HIT %:        100  MISS %:          0   MPKI: 0
PSCL5 PREFETCH  REQUESTED:          0  ISSUED:          0  USEFUL:          0  USELESS:          0
PSCL5 USEFUL LOAD PREFETCHES:          0 PREFETCH ISSUED TO LOWER LEVEL:          0  ACCURACY: -nan
PSCL5 TIMELY PREFETCHES:          0 LATE PREFETCHES: 0 DROPPED PREFETCHES: 0
PSCL5 PREFETCHES SAME FILL-ORIGIN LEVEL: 0 DIFFERENT FILL-ORIGIN LEVEL: 0

PSCL4 TOTAL     ACCESS:      28191  HIT:      28191  MISS:          0  HIT %:        100  MISS %:          0   MPKI: 0
PSCL4 LOAD TRANSLATION ACCESS:      24777  HIT:      24777  MISS:          0  HIT %:        100  MISS %:          0   MPKI: 0
PSCL4 TRANSLATION FROM L1D PREFETCHER ACCESS:       3414  HIT:       3414  MISS:          0  HIT %:        100  MISS %:          0   MPKI: 0
PSCL4 PREFETCH  REQUESTED:          0  ISSUED:          0  USEFUL:          0  USELESS:          0
PSCL4 USEFUL LOAD PREFETCHES:          0 PREFETCH ISSUED TO LOWER LEVEL:          0  ACCURACY: -nan
PSCL4 TIMELY PREFETCHES:          0 LATE PREFETCHES: 0 DROPPED PREFETCHES: 0
PSCL4 PREFETCHES SAME FILL-ORIGIN LEVEL: 0 DIFFERENT FILL-ORIGIN LEVEL: 0

PSCL3 TOTAL     ACCESS:      28191  HIT:      28191  MISS:          0  HIT %:        100  MISS %:          0   MPKI: 0
PSCL3 LOAD TRANSLATION ACCESS:      24777  HIT:      24777  MISS:          0  HIT %:        100  MISS %:          0   MPKI: 0
PSCL3 TRANSLATION FROM L1D PREFETCHER ACCESS:       3414  HIT:       3414  MISS:          0  HIT %:        100  MISS %:          0   MPKI: 0
PSCL3 PREFETCH  REQUESTED:          0  ISSUED:          0  USEFUL:          0  USELESS:          0
PSCL3 USEFUL LOAD PREFETCHES:          0 PREFETCH ISSUED TO LOWER LEVEL:          0  ACCURACY: -nan
PSCL3 TIMELY PREFETCHES:          0 LATE PREFETCHES: 0 DROPPED PREFETCHES: 0
PSCL3 PREFETCHES SAME FILL-ORIGIN LEVEL: 0 DIFFERENT FILL-ORIGIN LEVEL: 0

PSCL2 TOTAL     ACCESS:      28191  HIT:      23663  MISS:       4528  HIT %:    83.9381  MISS %:    16.0619   MPKI: 0.04528
PSCL2 LOAD TRANSLATION ACCESS:      24986  HIT:      20458  MISS:       4528  HIT %:    81.8779  MISS %:    18.1221   MPKI: 0.04528
PSCL2 TRANSLATION FROM L1D PREFETCHER ACCESS:       3205  HIT:       3205  MISS:          0  HIT %:        100  MISS %:          0   MPKI: 0
PSCL2 PREFETCH  REQUESTED:          0  ISSUED:          0  USEFUL:          0  USELESS:          0
PSCL2 USEFUL LOAD PREFETCHES:          0 PREFETCH ISSUED TO LOWER LEVEL:          0  ACCURACY: -nan
PSCL2 TIMELY PREFETCHES:          0 LATE PREFETCHES: 0 DROPPED PREFETCHES: 0
PSCL2 PREFETCHES SAME FILL-ORIGIN LEVEL: 0 DIFFERENT FILL-ORIGIN LEVEL: 0

LLC TOTAL     ACCESS:   10635998  HIT:    5710572  MISS:    4925426  HIT %:     53.691  MISS %:     46.309   MPKI: 49.2543
LLC LOAD      ACCESS:    3667296  HIT:    1798850  MISS:    1868446  HIT %:    49.0511  MISS %:    50.9489   MPKI: 18.6845
LLC RFO       ACCESS:     141543  HIT:      68770  MISS:      72773  HIT %:    48.5859  MISS %:    51.4141   MPKI: 0.72773
LLC PREFETCH  ACCESS:    6225043  HIT:    3265169  MISS:    2959874  HIT %:    52.4522  MISS %:    47.5478   MPKI: 29.5987
AGUS PREFETCH L1 MISS: 0
LLC WRITEBACK ACCESS:     580766  HIT:     574341  MISS:       6425  HIT %:    98.8937  MISS %:     1.1063   MPKI: 0.06425
LLC LOAD TRANSLATION ACCESS:      18206  HIT:       2884  MISS:      15322  HIT %:    15.8409  MISS %:    84.1591   MPKI: 0.15322
LLC TRANSLATION FROM L1D PREFETCHER ACCESS:       3144  HIT:        558  MISS:       2586  HIT %:    17.7481  MISS %:    82.2519   MPKI: 0.02586
LLC PREFETCH  REQUESTED:          0  ISSUED:          0  USEFUL:     440433  USELESS:    2523316
LLC USEFUL LOAD PREFETCHES:     440433 PREFETCH ISSUED TO LOWER LEVEL:    2959875  ACCURACY: 14.8801
LLC TIMELY PREFETCHES:     440433 LATE PREFETCHES: 0 DROPPED PREFETCHES: 0
LLC PREFETCHES SAME FILL-ORIGIN LEVEL: 0 DIFFERENT FILL-ORIGIN LEVEL: 0
LLC AVERAGE MISS LATENCY: 148.832 cycles
LLC RQ	ACCESS:    3830191	FORWARD:          0	MERGED:          0	TO_CACHE:    3830190
LLC WQ	ACCESS:     580766	FORWARD:          2	MERGED:          0	TO_CACHE:     580766
LLC PQ	ACCESS:    6225045	FORWARD:          0	MERGED:          0	TO_CACHE:    6225044

LLC Dense regions hint to LLC: 0

RAW hits: 24858
Loads Generated: 37899740
Loads sent to L1D: 37874880
Stores Generated: 1443838
Stores sent to L1D: 1443842
Major fault: 0 Minor fault: 22021
Allocated PAGES: 22021

stream: 
stream:times selected: 6253932
stream:pref_filled: 4583116
stream:pref_useful: 240363
stream:pref_late: 53643
stream:misses: 1367982
stream:misses_by_poll: 0

CS: 
CS:times selected: 190331
CS:pref_filled: 376764
CS:pref_useful: 355302
CS:pref_late: 16928
CS:misses: 329758
CS:misses_by_poll: 126

CPLX: 
CPLX:times selected: 6029821
CPLX:pref_filled: 136739
CPLX:pref_useful: 23076
CPLX:pref_late: 2339
CPLX:misses: 5321396
CPLX:misses_by_poll: 36

NL_L1: 
NL:times selected: 11226
NL:pref_filled: 9429
NL:pref_useful: 2775
NL:pref_late: 37
NL:misses: 12675
NL:misses_by_poll: 0

total selections: 12485310
total_filled: 7162903
total_useful: 754394
total_late: 115327
total_polluted: 162
total_misses_after_warmup: 5266636
conflicts: 8129

test: 2141566
ISB Prefetcher final stats
Training Unit Size: 112
Addr table size: 449454 449461


Triggers: 6253936
No Prediction: 968424 15.485
Stream end: 5201796
No translation: 915894957 14645.1
Predictions: 5756968 92.0535


Stream divergence: 1410780 22.5583
Stream divergence -- new stream: 0

DRAM Statistics
 CHANNEL 0
 RQ ROW_BUFFER_HIT:    2245104  ROW_BUFFER_MISS:    2673802
 DBUS_CONGESTED:       6504
 WQ ROW_BUFFER_HIT:     122889  ROW_BUFFER_MISS:     365569  FULL:          0

 AVG_CONGESTED_CYCLE: 4
 All warmup complete: 2
Channel 0 Bank busy for read cycles: 0
Channel 0 Bank busy for write cycles: 0
Channel 0
Rank 0
0banks busy for read cycles: 39926969
0banks busy for write cycles: 161980
1banks busy for read cycles: 65891608
1banks busy for write cycles: 27268362
2banks busy for read cycles: 50050837
2banks busy for write cycles: 16908053
3banks busy for read cycles: 33919586
3banks busy for write cycles: 9436323
4banks busy for read cycles: 26248814
4banks busy for write cycles: 4787399
5banks busy for read cycles: 15213114
5banks busy for write cycles: 2191522
6banks busy for read cycles: 6896256
6banks busy for write cycles: 906952
7banks busy for read cycles: 2348216
7banks busy for write cycles: 375463
8banks busy for read cycles: 852778
8banks busy for write cycles: 276100

CPU 0 Branch Prediction Accuracy: 96.822% MPKI: 4.71695 Average ROB Occupancy at Mispredict: 120.89
Branch types
NOT_BRANCH: 85157279 85.1573%
BRANCH_DIRECT_JUMP: 4499227 4.49923%
BRANCH_INDIRECT: 0 0%
BRANCH_CONDITIONAL: 10341465 10.3415%
BRANCH_DIRECT_CALL: 1016 0.001016%
BRANCH_INDIRECT_CALL: 0 0%
BRANCH_RETURN: 1016 0.001016%
BRANCH_OTHER: 0 0%

DRAM PAGES: 1048576
Allocated PAGES: 22021
