
*** ChampSim Multicore Out-of-Order Simulator ***

Warmup Instructions: 50000000
Simulation Instructions: 50000000
Number of CPUs: 1
LLC sets: 2048
LLC ways: 16
Off-chip DRAM Size: 4096 MB Channels: 1 Width: 64-bit Data Rate: 6400 MT/s
CPU 0 runs traces/SPEC-CPU2017/450.soplex-247B.champsimtrace.xz
.xz
CPU 0 Bimodal branch predictor
BTB has LRU replacement policy
ITLB has LRU replacement policy
DTLB has LRU replacement policy
STLB has LRU replacement policy
L1I has LRU replacement policy
L1D has LRU replacement policy
Ideal ISB Prefetching
L2C has LRU replacement policy
LLC has LRU replacement policy
Heartbeat CPU 0 instructions: 10000002 cycles: 3563986 heartbeat IPC: 2.80585 cumulative IPC: 2.80585 (Simulation time: 0 hr 0 min 52 sec) 
Heartbeat CPU 0 instructions: 20000000 cycles: 6843250 heartbeat IPC: 3.04946 cumulative IPC: 2.92259 (Simulation time: 0 hr 1 min 46 sec) 
Heartbeat CPU 0 instructions: 30000002 cycles: 10094729 heartbeat IPC: 3.07552 cumulative IPC: 2.97185 (Simulation time: 0 hr 2 min 51 sec) 
Heartbeat CPU 0 instructions: 40000000 cycles: 13348171 heartbeat IPC: 3.07367 cumulative IPC: 2.99667 (Simulation time: 0 hr 3 min 53 sec) 
Heartbeat CPU 0 instructions: 50000000 cycles: 16592922 heartbeat IPC: 3.0819 cumulative IPC: 3.01333 (Simulation time: 0 hr 4 min 54 sec) 

Warmup complete CPU 0 instructions: 50000004 cycles: 16592923 (Simulation time: 0 hr 4 min 54 sec) 

Heartbeat CPU 0 instructions: 60000000 cycles: 42680414 heartbeat IPC: 0.383325 cumulative IPC: 0.383325 (Simulation time: 0 hr 6 min 18 sec) 
Heartbeat CPU 0 instructions: 70000002 cycles: 70232101 heartbeat IPC: 0.362954 cumulative IPC: 0.372862 (Simulation time: 0 hr 7 min 44 sec) 
Heartbeat CPU 0 instructions: 80000000 cycles: 97125110 heartbeat IPC: 0.371844 cumulative IPC: 0.372522 (Simulation time: 0 hr 9 min 11 sec) 
Heartbeat CPU 0 instructions: 90000002 cycles: 124587964 heartbeat IPC: 0.364128 cumulative IPC: 0.370387 (Simulation time: 0 hr 10 min 43 sec) 
Heartbeat CPU 0 instructions: 100000000 cycles: 150272704 heartbeat IPC: 0.389336 cumulative IPC: 0.374028 (Simulation time: 0 hr 12 min 10 sec) 
Finished CPU 0 instructions: 50000000 cycles: 133679789 cumulative IPC: 0.374028 (Simulation time: 0 hr 12 min 10 sec) 

ChampSim completed all CPUs

Region of Interest Statistics

CPU 0 cumulative IPC: 0.374028 instructions: 50000000 cycles: 133679789
ITLB TOTAL     ACCESS:    8614534  HIT:    8614534  MISS:          0  HIT %:        100  MISS %:          0   MPKI: 0
ITLB LOAD TRANSLATION ACCESS:    8614534  HIT:    8614534  MISS:          0  HIT %:        100  MISS %:          0   MPKI: 0
ITLB PREFETCH  REQUESTED:          0  ISSUED:          0  USEFUL:          0  USELESS:          0
ITLB USEFUL LOAD PREFETCHES:          0 PREFETCH ISSUED TO LOWER LEVEL:          0  ACCURACY: -nan
ITLB TIMELY PREFETCHES:          0 LATE PREFETCHES: 0 DROPPED PREFETCHES: 0
ITLB PREFETCHES SAME FILL-ORIGIN LEVEL: 0 DIFFERENT FILL-ORIGIN LEVEL: 0
ITLB AVERAGE MISS LATENCY: -nan cycles
ITLB RQ	ACCESS:    9625968	FORWARD:          0	MERGED:    1011434	TO_CACHE:    8614534

DTLB TOTAL     ACCESS:    9522116  HIT:    9248434  MISS:     273682  HIT %:    97.1258  MISS %:    2.87417   MPKI: 5.47364
DTLB LOAD TRANSLATION ACCESS:    9522116  HIT:    9248434  MISS:     273682  HIT %:    97.1258  MISS %:    2.87417   MPKI: 5.47364
DTLB PREFETCH  REQUESTED:          0  ISSUED:          0  USEFUL:          0  USELESS:          0
DTLB USEFUL LOAD PREFETCHES:          0 PREFETCH ISSUED TO LOWER LEVEL:          0  ACCURACY: -nan
DTLB TIMELY PREFETCHES:          0 LATE PREFETCHES: 0 DROPPED PREFETCHES: 0
DTLB PREFETCHES SAME FILL-ORIGIN LEVEL: 0 DIFFERENT FILL-ORIGIN LEVEL: 0
DTLB AVERAGE MISS LATENCY: 23.2189 cycles
DTLB RQ	ACCESS:   10805884	FORWARD:          0	MERGED:    1230669	TO_CACHE:    9575215

STLB TOTAL     ACCESS:     273682  HIT:     231364  MISS:      42318  HIT %:    84.5375  MISS %:    15.4625   MPKI: 0.84636
STLB LOAD TRANSLATION ACCESS:     273682  HIT:     231364  MISS:      42318  HIT %:    84.5375  MISS %:    15.4625   MPKI: 0.84636
STLB PREFETCH  REQUESTED:          0  ISSUED:          0  USEFUL:          0  USELESS:          0
STLB USEFUL LOAD PREFETCHES:          0 PREFETCH ISSUED TO LOWER LEVEL:          0  ACCURACY: -nan
STLB TIMELY PREFETCHES:          0 LATE PREFETCHES: 0 DROPPED PREFETCHES: 0
STLB PREFETCHES SAME FILL-ORIGIN LEVEL: 0 DIFFERENT FILL-ORIGIN LEVEL: 0
STLB AVERAGE MISS LATENCY: 90.7407 cycles
STLB RQ	ACCESS:     273682	FORWARD:          0	MERGED:          0	TO_CACHE:     273682

STLB Hit, L1D data hit: 0
STLB Hit, L2C data hit: 0
STLB Hit, LLC data hit: 0
STLB Hit, LLC data miss: 0
STLB STLB hints to L2: 0
L1D TOTAL     ACCESS:    9485898  HIT:    6958623  MISS:    2527275  HIT %:    73.3576  MISS %:    26.6424   MPKI: 50.5455
L1D LOAD      ACCESS:    7306217  HIT:    5073541  MISS:    2232676  HIT %:    69.4414  MISS %:    30.5586   MPKI: 44.6535
L1D RFO       ACCESS:    2179681  HIT:    1885082  MISS:     294599  HIT %:    86.4843  MISS %:    13.5157   MPKI: 5.89198
L1D PREFETCH  REQUESTED:          0  ISSUED:          0  USEFUL:          0  USELESS:          0
L1D USEFUL LOAD PREFETCHES:          0 PREFETCH ISSUED TO LOWER LEVEL:          0  ACCURACY: -nan
L1D TIMELY PREFETCHES:          0 LATE PREFETCHES: 0 DROPPED PREFETCHES: 0
L1D PREFETCHES SAME FILL-ORIGIN LEVEL: 0 DIFFERENT FILL-ORIGIN LEVEL: 0
L1D AVERAGE MISS LATENCY: 104.262 cycles
L1D RQ	ACCESS:   14858301	FORWARD:          0	MERGED:    7087095	TO_CACHE:    7766515
L1D WQ	ACCESS:    3057587	FORWARD:       4691	MERGED:      18218	TO_CACHE:    3039369

L1D UNIQUE REGIONS ACCESSED: 0
L1D REGIONS CONFLICTS: 0
L1D Cross Page Prefetch Requests: 0
L1D Same Page Prefetch Requests: 0
L1D ROI Sum of L1D PQ occupancy: 0
L1D PREFETCHES PUSHED FROM L2C: 0
L1I TOTAL     ACCESS:    9625933  HIT:    9625823  MISS:        110  HIT %:    99.9989  MISS %: 0.00114275   MPKI: 0.0022
L1I LOAD      ACCESS:    9625933  HIT:    9625823  MISS:        110  HIT %:    99.9989  MISS %: 0.00114275   MPKI: 0.0022
L1I PREFETCH  REQUESTED:          0  ISSUED:          0  USEFUL:          0  USELESS:          0
L1I USEFUL LOAD PREFETCHES:          0 PREFETCH ISSUED TO LOWER LEVEL:          0  ACCURACY: -nan
L1I TIMELY PREFETCHES:          0 LATE PREFETCHES: 0 DROPPED PREFETCHES: 0
L1I PREFETCHES SAME FILL-ORIGIN LEVEL: 0 DIFFERENT FILL-ORIGIN LEVEL: 0
L1I AVERAGE MISS LATENCY: 247.264 cycles
L1I RQ	ACCESS:   13920449	FORWARD:          0	MERGED:    4294481	TO_CACHE:    9625968

BTB TOTAL     ACCESS:    6809342  HIT:    6808754  MISS:        588  HIT %:    99.9914  MISS %:  0.0086352   MPKI: 0.01176
BTB BRANCH_DIRECT_JUMP	ACCESS:      51581  HIT:      51508  MISS:         73
BTB BRANCH_INDIRECT	ACCESS:         18  HIT:         11  MISS:          7
BTB BRANCH_CONDITIONAL	ACCESS:    6754137  HIT:    6753933  MISS:        204
BTB BRANCH_DIRECT_CALL	ACCESS:       1703  HIT:       1632  MISS:         71
BTB BRANCH_INDIRECT_CALL	ACCESS:        102  HIT:         81  MISS:         21
BTB BRANCH_RETURN	ACCESS:       1801  HIT:       1589  MISS:        212
BTB BRANCH_OTHER ACCESS:          0  HIT:          0  MISS:          0

L2C TOTAL     ACCESS:    5092106  HIT:    2798216  MISS:    2293890  HIT %:     54.952  MISS %:     45.048   MPKI: 45.8778
L2C LOAD      ACCESS:    2232677  HIT:    1302435  MISS:     930242  HIT %:    58.3351  MISS %:    41.6649   MPKI: 18.6048
L2C DATA LOAD MPKI: 18.6026
L2C INSTRUCTION LOAD MPKI: 0.0022
L2C RFO       ACCESS:     294596  HIT:      26756  MISS:     267840  HIT %:    9.08227  MISS %:    90.9177   MPKI: 5.3568
L2C PREFETCH  ACCESS:    1492616  HIT:     407679  MISS:    1084937  HIT %:    27.3131  MISS %:    72.6869   MPKI: 21.6987
AGUS PREFETCH L1 MISS: 0
L2C DATA PREFETCH MPKI: 21.6987
L2C INSTRUCTION PREFETCH MPKI: 0
L2C WRITEBACK ACCESS:    1029671  HIT:    1029633  MISS:         38  HIT %:    99.9963  MISS %:  0.0036905   MPKI: 0.00076
L2C LOAD TRANSLATION ACCESS:      42546  HIT:      31713  MISS:      10833  HIT %:    74.5381  MISS %:    25.4619   MPKI: 0.21666
L2C PREFETCH  REQUESTED:    1940651  ISSUED:    1927289  USEFUL:     859108  USELESS:     225836
L2C USEFUL LOAD PREFETCHES:     859108 PREFETCH ISSUED TO LOWER LEVEL:    1142569  ACCURACY: 75.1909
L2C TIMELY PREFETCHES:     859108 LATE PREFETCHES: 57632 DROPPED PREFETCHES: 0
L2C PREFETCHES SAME FILL-ORIGIN LEVEL: 1142569 DIFFERENT FILL-ORIGIN LEVEL: 0
L2C AVERAGE MISS LATENCY: 204.983 cycles
L2C RQ	ACCESS:    2569935	FORWARD:          0	MERGED:          0	TO_CACHE:    2569823
L2C WQ	ACCESS:    1029672	FORWARD:        127	MERGED:          0	TO_CACHE:    1029672
L2C PQ	ACCESS:    1927289	FORWARD:          0	MERGED:     169571	TO_CACHE:    1757703

L2C Instructions Evicting Data 110
L2C Translations Evicting Data 10744
L2C Data Evicting Data 2272059
L2C Instructions Evicting Instructions 0
L2C Translations Evicting Instructions 1
L2C Data Evicting Instructions 106
L2C Instructions Evicting Translations 0
L2C Translations Evicting Translations 88
L2C Data Evicting Translations 10744
L2C Dense regions hint from L2: 0
PSCL5 TOTAL     ACCESS:      42318  HIT:      42318  MISS:          0  HIT %:        100  MISS %:          0   MPKI: 0
PSCL5 LOAD TRANSLATION ACCESS:      42318  HIT:      42318  MISS:          0  HIT %:        100  MISS %:          0   MPKI: 0
PSCL5 PREFETCH  REQUESTED:          0  ISSUED:          0  USEFUL:          0  USELESS:          0
PSCL5 USEFUL LOAD PREFETCHES:          0 PREFETCH ISSUED TO LOWER LEVEL:          0  ACCURACY: -nan
PSCL5 TIMELY PREFETCHES:          0 LATE PREFETCHES: 0 DROPPED PREFETCHES: 0
PSCL5 PREFETCHES SAME FILL-ORIGIN LEVEL: 0 DIFFERENT FILL-ORIGIN LEVEL: 0

PSCL4 TOTAL     ACCESS:      42318  HIT:      42318  MISS:          0  HIT %:        100  MISS %:          0   MPKI: 0
PSCL4 LOAD TRANSLATION ACCESS:      42318  HIT:      42318  MISS:          0  HIT %:        100  MISS %:          0   MPKI: 0
PSCL4 PREFETCH  REQUESTED:          0  ISSUED:          0  USEFUL:          0  USELESS:          0
PSCL4 USEFUL LOAD PREFETCHES:          0 PREFETCH ISSUED TO LOWER LEVEL:          0  ACCURACY: -nan
PSCL4 TIMELY PREFETCHES:          0 LATE PREFETCHES: 0 DROPPED PREFETCHES: 0
PSCL4 PREFETCHES SAME FILL-ORIGIN LEVEL: 0 DIFFERENT FILL-ORIGIN LEVEL: 0

PSCL3 TOTAL     ACCESS:      42318  HIT:      42318  MISS:          0  HIT %:        100  MISS %:          0   MPKI: 0
PSCL3 LOAD TRANSLATION ACCESS:      42318  HIT:      42318  MISS:          0  HIT %:        100  MISS %:          0   MPKI: 0
PSCL3 PREFETCH  REQUESTED:          0  ISSUED:          0  USEFUL:          0  USELESS:          0
PSCL3 USEFUL LOAD PREFETCHES:          0 PREFETCH ISSUED TO LOWER LEVEL:          0  ACCURACY: -nan
PSCL3 TIMELY PREFETCHES:          0 LATE PREFETCHES: 0 DROPPED PREFETCHES: 0
PSCL3 PREFETCHES SAME FILL-ORIGIN LEVEL: 0 DIFFERENT FILL-ORIGIN LEVEL: 0

PSCL2 TOTAL     ACCESS:      42318  HIT:      42086  MISS:        232  HIT %:    99.4518  MISS %:    0.54823   MPKI: 0.00464
PSCL2 LOAD TRANSLATION ACCESS:      42318  HIT:      42086  MISS:        232  HIT %:    99.4518  MISS %:    0.54823   MPKI: 0.00464
PSCL2 PREFETCH  REQUESTED:          0  ISSUED:          0  USEFUL:          0  USELESS:          0
PSCL2 USEFUL LOAD PREFETCHES:          0 PREFETCH ISSUED TO LOWER LEVEL:          0  ACCURACY: -nan
PSCL2 TIMELY PREFETCHES:          0 LATE PREFETCHES: 0 DROPPED PREFETCHES: 0
PSCL2 PREFETCHES SAME FILL-ORIGIN LEVEL: 0 DIFFERENT FILL-ORIGIN LEVEL: 0

LLC TOTAL     ACCESS:    3074477  HIT:    1258332  MISS:    1816145  HIT %:    40.9283  MISS %:    59.0717   MPKI: 36.3229
LLC LOAD      ACCESS:     872601  HIT:     222043  MISS:     650558  HIT %:    25.4461  MISS %:    74.5539   MPKI: 13.0112
LLC RFO       ACCESS:     267838  HIT:      73141  MISS:     194697  HIT %:    27.3079  MISS %:    72.6921   MPKI: 3.89394
LLC PREFETCH  ACCESS:    1142567  HIT:     181219  MISS:     961348  HIT %:    15.8607  MISS %:    84.1393   MPKI: 19.227
AGUS PREFETCH L1 MISS: 0
LLC WRITEBACK ACCESS:     780638  HIT:     780556  MISS:         82  HIT %:    99.9895  MISS %:  0.0105042   MPKI: 0.00164
LLC LOAD TRANSLATION ACCESS:      10833  HIT:       1373  MISS:       9460  HIT %:    12.6742  MISS %:    87.3258   MPKI: 0.1892
LLC PREFETCH  REQUESTED:          0  ISSUED:          0  USEFUL:      68261  USELESS:     901372
LLC USEFUL LOAD PREFETCHES:      68261 PREFETCH ISSUED TO LOWER LEVEL:     961348  ACCURACY: 7.10055
LLC TIMELY PREFETCHES:      68261 LATE PREFETCHES: 0 DROPPED PREFETCHES: 0
LLC PREFETCHES SAME FILL-ORIGIN LEVEL: 0 DIFFERENT FILL-ORIGIN LEVEL: 0
LLC AVERAGE MISS LATENCY: 221.007 cycles
LLC RQ	ACCESS:    1151287	FORWARD:          0	MERGED:          0	TO_CACHE:    1151276
LLC WQ	ACCESS:     780639	FORWARD:         13	MERGED:          0	TO_CACHE:     780639
LLC PQ	ACCESS:    1142569	FORWARD:          0	MERGED:          0	TO_CACHE:    1142567

LLC Dense regions hint to LLC: 0

RAW hits: 150252
Loads Generated: 15008556
Loads sent to L1D: 14858301
Stores Generated: 3057587
Stores sent to L1D: 3057587
Major fault: 0 Minor fault: 7959
Allocated PAGES: 7959
Prefetcher final stats
Training Unit Size: 916
Addr table size: 238576 238597


Triggers: 4420709
Structural address exists: 1472640 33.3123
No Prediction: 2948069 66.6877
Prefetches issued: 3646627 82.4896
Useful Prefetches: 859108
Useless Prefetches: 225836
Stream end: 1229681
No translation: 1248705467
%Stream divergence: 780168 17.648
Stream divergence -- new stream: 0

DRAM Statistics
 CHANNEL 0
 RQ ROW_BUFFER_HIT:     567307  ROW_BUFFER_MISS:    1248372
 DBUS_CONGESTED:        296
 WQ ROW_BUFFER_HIT:     172323  ROW_BUFFER_MISS:     456166  FULL:          0

 AVG_CONGESTED_CYCLE: 5
 All warmup complete: 2
Channel 0 Bank busy for read cycles: 0
Channel 0 Bank busy for write cycles: 0
Channel 0
Rank 0
0banks busy for read cycles: 38322547
0banks busy for write cycles: 58771
1banks busy for read cycles: 23594329
1banks busy for write cycles: 7864398
2banks busy for read cycles: 11139529
2banks busy for write cycles: 3081276
3banks busy for read cycles: 7412757
3banks busy for write cycles: 1672029
4banks busy for read cycles: 5866683
4banks busy for write cycles: 1224146
5banks busy for read cycles: 4634167
5banks busy for write cycles: 1084466
6banks busy for read cycles: 4633062
6banks busy for write cycles: 1150630
7banks busy for read cycles: 4523750
7banks busy for write cycles: 2166645
8banks busy for read cycles: 5601446
8banks busy for write cycles: 9649159

CPU 0 Branch Prediction Accuracy: 94.9774% MPKI: 9.10314 Average ROB Occupancy at Mispredict: 49.2697
Branch types
NOT_BRANCH: 40937803 81.8756%
BRANCH_DIRECT_JUMP: 51581 0.103162%
BRANCH_INDIRECT: 18 3.6e-05%
BRANCH_CONDITIONAL: 9006960 18.0139%
BRANCH_DIRECT_CALL: 1703 0.003406%
BRANCH_INDIRECT_CALL: 102 0.000204%
BRANCH_RETURN: 1801 0.003602%
BRANCH_OTHER: 0 0%

DRAM PAGES: 1048576
Allocated PAGES: 7959
