
*** ChampSim Multicore Out-of-Order Simulator ***

Warmup Instructions: 50000000
Simulation Instructions: 50000000
Number of CPUs: 1
LLC sets: 2048
LLC ways: 16
Off-chip DRAM Size: 4096 MB Channels: 1 Width: 64-bit Data Rate: 6400 MT/s
CPU 0 runs traces/SPEC-CPU2017/450.soplex-247B.champsimtrace.xz
.xz
CPU 0 Bimodal branch predictor
BTB has LRU replacement policy
ITLB has LRU replacement policy
DTLB has LRU replacement policy
STLB has LRU replacement policy
L1I has LRU replacement policy
L1D has LRU replacement policy
Ideal ISB Prefetching
L2C has LRU replacement policy
LLC has LRU replacement policy
Heartbeat CPU 0 instructions: 10000002 cycles: 3562200 heartbeat IPC: 2.80725 cumulative IPC: 2.80725 (Simulation time: 0 hr 0 min 56 sec) 
Heartbeat CPU 0 instructions: 20000000 cycles: 6835095 heartbeat IPC: 3.0554 cumulative IPC: 2.92607 (Simulation time: 0 hr 1 min 47 sec) 
Heartbeat CPU 0 instructions: 30000001 cycles: 10078848 heartbeat IPC: 3.08285 cumulative IPC: 2.97653 (Simulation time: 0 hr 2 min 56 sec) 
Heartbeat CPU 0 instructions: 40000000 cycles: 13325692 heartbeat IPC: 3.07991 cumulative IPC: 3.00172 (Simulation time: 0 hr 4 min 8 sec) 
Heartbeat CPU 0 instructions: 50000000 cycles: 16564661 heartbeat IPC: 3.0874 cumulative IPC: 3.01847 (Simulation time: 0 hr 5 min 24 sec) 

Warmup complete CPU 0 instructions: 50000004 cycles: 16564662 (Simulation time: 0 hr 5 min 24 sec) 

Heartbeat CPU 0 instructions: 60000000 cycles: 41056135 heartbeat IPC: 0.408305 cumulative IPC: 0.408305 (Simulation time: 0 hr 7 min 3 sec) 
Heartbeat CPU 0 instructions: 70000002 cycles: 66839581 heartbeat IPC: 0.387846 cumulative IPC: 0.397813 (Simulation time: 0 hr 8 min 46 sec) 
Heartbeat CPU 0 instructions: 80000000 cycles: 91854135 heartbeat IPC: 0.399767 cumulative IPC: 0.398462 (Simulation time: 0 hr 10 min 31 sec) 
Heartbeat CPU 0 instructions: 90000002 cycles: 117777952 heartbeat IPC: 0.385746 cumulative IPC: 0.395205 (Simulation time: 0 hr 12 min 26 sec) 
Heartbeat CPU 0 instructions: 100000000 cycles: 141982801 heartbeat IPC: 0.41314 cumulative IPC: 0.398666 (Simulation time: 0 hr 14 min 12 sec) 
Finished CPU 0 instructions: 50000000 cycles: 125418147 cumulative IPC: 0.398666 (Simulation time: 0 hr 14 min 12 sec) 

ChampSim completed all CPUs

Region of Interest Statistics

CPU 0 cumulative IPC: 0.398666 instructions: 50000000 cycles: 125418147
ITLB TOTAL     ACCESS:    8585255  HIT:    8585255  MISS:          0  HIT %:        100  MISS %:          0   MPKI: 0
ITLB LOAD TRANSLATION ACCESS:    8585255  HIT:    8585255  MISS:          0  HIT %:        100  MISS %:          0   MPKI: 0
ITLB PREFETCH  REQUESTED:          0  ISSUED:          0  USEFUL:          0  USELESS:          0
ITLB USEFUL LOAD PREFETCHES:          0 PREFETCH ISSUED TO LOWER LEVEL:          0  ACCURACY: -nan
ITLB TIMELY PREFETCHES:          0 LATE PREFETCHES: 0 DROPPED PREFETCHES: 0
ITLB PREFETCHES SAME FILL-ORIGIN LEVEL: 0 DIFFERENT FILL-ORIGIN LEVEL: 0
ITLB AVERAGE MISS LATENCY: -nan cycles
ITLB RQ	ACCESS:    9595086	FORWARD:          0	MERGED:    1009831	TO_CACHE:    8585255

DTLB TOTAL     ACCESS:    9609283  HIT:    9335511  MISS:     273772  HIT %:     97.151  MISS %:    2.84904   MPKI: 5.47544
DTLB LOAD TRANSLATION ACCESS:    9609283  HIT:    9335511  MISS:     273772  HIT %:     97.151  MISS %:    2.84904   MPKI: 5.47544
DTLB PREFETCH  REQUESTED:          0  ISSUED:          0  USEFUL:          0  USELESS:          0
DTLB USEFUL LOAD PREFETCHES:          0 PREFETCH ISSUED TO LOWER LEVEL:          0  ACCURACY: -nan
DTLB TIMELY PREFETCHES:          0 LATE PREFETCHES: 0 DROPPED PREFETCHES: 0
DTLB PREFETCHES SAME FILL-ORIGIN LEVEL: 0 DIFFERENT FILL-ORIGIN LEVEL: 0
DTLB AVERAGE MISS LATENCY: 24.952 cycles
DTLB RQ	ACCESS:   10885121	FORWARD:          0	MERGED:    1222542	TO_CACHE:    9662579

STLB TOTAL     ACCESS:     273772  HIT:     231452  MISS:      42320  HIT %:    84.5419  MISS %:    15.4581   MPKI: 0.8464
STLB LOAD TRANSLATION ACCESS:     273772  HIT:     231452  MISS:      42320  HIT %:    84.5419  MISS %:    15.4581   MPKI: 0.8464
STLB PREFETCH  REQUESTED:          0  ISSUED:          0  USEFUL:          0  USELESS:          0
STLB USEFUL LOAD PREFETCHES:          0 PREFETCH ISSUED TO LOWER LEVEL:          0  ACCURACY: -nan
STLB TIMELY PREFETCHES:          0 LATE PREFETCHES: 0 DROPPED PREFETCHES: 0
STLB PREFETCHES SAME FILL-ORIGIN LEVEL: 0 DIFFERENT FILL-ORIGIN LEVEL: 0
STLB AVERAGE MISS LATENCY: 101.997 cycles
STLB RQ	ACCESS:     273772	FORWARD:          0	MERGED:          0	TO_CACHE:     273772

STLB Hit, L1D data hit: 0
STLB Hit, L2C data hit: 0
STLB Hit, LLC data hit: 0
STLB Hit, LLC data miss: 0
STLB STLB hints to L2: 0
L1D TOTAL     ACCESS:    9646650  HIT:    7119386  MISS:    2527264  HIT %:    73.8016  MISS %:    26.1984   MPKI: 50.5453
L1D LOAD      ACCESS:    7467510  HIT:    5234835  MISS:    2232675  HIT %:    70.1015  MISS %:    29.8985   MPKI: 44.6535
L1D RFO       ACCESS:    2179140  HIT:    1884551  MISS:     294589  HIT %:    86.4814  MISS %:    13.5186   MPKI: 5.89178
L1D PREFETCH  REQUESTED:          0  ISSUED:          0  USEFUL:          0  USELESS:          0
L1D USEFUL LOAD PREFETCHES:          0 PREFETCH ISSUED TO LOWER LEVEL:          0  ACCURACY: -nan
L1D TIMELY PREFETCHES:          0 LATE PREFETCHES: 0 DROPPED PREFETCHES: 0
L1D PREFETCHES SAME FILL-ORIGIN LEVEL: 0 DIFFERENT FILL-ORIGIN LEVEL: 0
L1D AVERAGE MISS LATENCY: 93.4625 cycles
L1D RQ	ACCESS:   14858707	FORWARD:          0	MERGED:    7008470	TO_CACHE:    7845467
L1D WQ	ACCESS:    3057587	FORWARD:       4770	MERGED:      17933	TO_CACHE:    3039654

L1D UNIQUE REGIONS ACCESSED: 0
L1D REGIONS CONFLICTS: 0
L1D Cross Page Prefetch Requests: 0
L1D Same Page Prefetch Requests: 0
L1D ROI Sum of L1D PQ occupancy: 0
L1D PREFETCHES PUSHED FROM L2C: 0
L1I TOTAL     ACCESS:    9595053  HIT:    9594943  MISS:        110  HIT %:    99.9989  MISS %: 0.00114642   MPKI: 0.0022
L1I LOAD      ACCESS:    9595053  HIT:    9594943  MISS:        110  HIT %:    99.9989  MISS %: 0.00114642   MPKI: 0.0022
L1I PREFETCH  REQUESTED:          0  ISSUED:          0  USEFUL:          0  USELESS:          0
L1I USEFUL LOAD PREFETCHES:          0 PREFETCH ISSUED TO LOWER LEVEL:          0  ACCURACY: -nan
L1I TIMELY PREFETCHES:          0 LATE PREFETCHES: 0 DROPPED PREFETCHES: 0
L1I PREFETCHES SAME FILL-ORIGIN LEVEL: 0 DIFFERENT FILL-ORIGIN LEVEL: 0
L1I AVERAGE MISS LATENCY: 243.945 cycles
L1I RQ	ACCESS:   13865998	FORWARD:          0	MERGED:    4270912	TO_CACHE:    9595086

BTB TOTAL     ACCESS:    6809335  HIT:    6808747  MISS:        588  HIT %:    99.9914  MISS %:  0.0086352   MPKI: 0.01176
BTB BRANCH_DIRECT_JUMP	ACCESS:      51581  HIT:      51508  MISS:         73
BTB BRANCH_INDIRECT	ACCESS:         18  HIT:         11  MISS:          7
BTB BRANCH_CONDITIONAL	ACCESS:    6754130  HIT:    6753926  MISS:        204
BTB BRANCH_DIRECT_CALL	ACCESS:       1703  HIT:       1632  MISS:         71
BTB BRANCH_INDIRECT_CALL	ACCESS:        102  HIT:         81  MISS:         21
BTB BRANCH_RETURN	ACCESS:       1801  HIT:       1589  MISS:        212
BTB BRANCH_OTHER ACCESS:          0  HIT:          0  MISS:          0

L2C TOTAL     ACCESS:   11132159  HIT:    8799340  MISS:    2332819  HIT %:    79.0443  MISS %:    20.9557   MPKI: 46.6564
L2C LOAD      ACCESS:    2232675  HIT:    1547496  MISS:     685179  HIT %:    69.3113  MISS %:    30.6887   MPKI: 13.7036
L2C DATA LOAD MPKI: 13.7014
L2C INSTRUCTION LOAD MPKI: 0.0022
L2C RFO       ACCESS:     294584  HIT:      24772  MISS:     269812  HIT %:    8.40915  MISS %:    91.5909   MPKI: 5.39624
L2C PREFETCH  ACCESS:    7532674  HIT:    6165802  MISS:    1366872  HIT %:    81.8541  MISS %:    18.1459   MPKI: 27.3374
AGUS PREFETCH L1 MISS: 0
L2C DATA PREFETCH MPKI: 27.3374
L2C INSTRUCTION PREFETCH MPKI: 0
L2C WRITEBACK ACCESS:    1029678  HIT:    1029618  MISS:         60  HIT %:    99.9942  MISS %: 0.00582706   MPKI: 0.0012
L2C LOAD TRANSLATION ACCESS:      42548  HIT:      31652  MISS:      10896  HIT %:    74.3913  MISS %:    25.6087   MPKI: 0.21792
L2C PREFETCH  REQUESTED:    9419378  ISSUED:    8789130  USEFUL:    1102726  USELESS:     264145
L2C USEFUL LOAD PREFETCHES:    1102726 PREFETCH ISSUED TO LOWER LEVEL:    1407621  ACCURACY: 78.3397
L2C TIMELY PREFETCHES:    1102726 LATE PREFETCHES: 40749 DROPPED PREFETCHES: 0
L2C PREFETCHES SAME FILL-ORIGIN LEVEL: 1407621 DIFFERENT FILL-ORIGIN LEVEL: 0
L2C AVERAGE MISS LATENCY: 228.864 cycles
L2C RQ	ACCESS:    2569926	FORWARD:          0	MERGED:          0	TO_CACHE:    2569811
L2C WQ	ACCESS:    1029679	FORWARD:        216	MERGED:          0	TO_CACHE:    1029679
L2C PQ	ACCESS:    8789130	FORWARD:          0	MERGED:     617098	TO_CACHE:    8171931

L2C Instructions Evicting Data 110
L2C Translations Evicting Data 10810
L2C Data Evicting Data 2310837
L2C Instructions Evicting Instructions 0
L2C Translations Evicting Instructions 0
L2C Data Evicting Instructions 107
L2C Instructions Evicting Translations 0
L2C Translations Evicting Translations 86
L2C Data Evicting Translations 10809
L2C Dense regions hint from L2: 0
PSCL5 TOTAL     ACCESS:      42320  HIT:      42320  MISS:          0  HIT %:        100  MISS %:          0   MPKI: 0
PSCL5 LOAD TRANSLATION ACCESS:      42320  HIT:      42320  MISS:          0  HIT %:        100  MISS %:          0   MPKI: 0
PSCL5 PREFETCH  REQUESTED:          0  ISSUED:          0  USEFUL:          0  USELESS:          0
PSCL5 USEFUL LOAD PREFETCHES:          0 PREFETCH ISSUED TO LOWER LEVEL:          0  ACCURACY: -nan
PSCL5 TIMELY PREFETCHES:          0 LATE PREFETCHES: 0 DROPPED PREFETCHES: 0
PSCL5 PREFETCHES SAME FILL-ORIGIN LEVEL: 0 DIFFERENT FILL-ORIGIN LEVEL: 0

PSCL4 TOTAL     ACCESS:      42320  HIT:      42320  MISS:          0  HIT %:        100  MISS %:          0   MPKI: 0
PSCL4 LOAD TRANSLATION ACCESS:      42320  HIT:      42320  MISS:          0  HIT %:        100  MISS %:          0   MPKI: 0
PSCL4 PREFETCH  REQUESTED:          0  ISSUED:          0  USEFUL:          0  USELESS:          0
PSCL4 USEFUL LOAD PREFETCHES:          0 PREFETCH ISSUED TO LOWER LEVEL:          0  ACCURACY: -nan
PSCL4 TIMELY PREFETCHES:          0 LATE PREFETCHES: 0 DROPPED PREFETCHES: 0
PSCL4 PREFETCHES SAME FILL-ORIGIN LEVEL: 0 DIFFERENT FILL-ORIGIN LEVEL: 0

PSCL3 TOTAL     ACCESS:      42320  HIT:      42320  MISS:          0  HIT %:        100  MISS %:          0   MPKI: 0
PSCL3 LOAD TRANSLATION ACCESS:      42320  HIT:      42320  MISS:          0  HIT %:        100  MISS %:          0   MPKI: 0
PSCL3 PREFETCH  REQUESTED:          0  ISSUED:          0  USEFUL:          0  USELESS:          0
PSCL3 USEFUL LOAD PREFETCHES:          0 PREFETCH ISSUED TO LOWER LEVEL:          0  ACCURACY: -nan
PSCL3 TIMELY PREFETCHES:          0 LATE PREFETCHES: 0 DROPPED PREFETCHES: 0
PSCL3 PREFETCHES SAME FILL-ORIGIN LEVEL: 0 DIFFERENT FILL-ORIGIN LEVEL: 0

PSCL2 TOTAL     ACCESS:      42320  HIT:      42088  MISS:        232  HIT %:    99.4518  MISS %:   0.548204   MPKI: 0.00464
PSCL2 LOAD TRANSLATION ACCESS:      42320  HIT:      42088  MISS:        232  HIT %:    99.4518  MISS %:   0.548204   MPKI: 0.00464
PSCL2 PREFETCH  REQUESTED:          0  ISSUED:          0  USEFUL:          0  USELESS:          0
PSCL2 USEFUL LOAD PREFETCHES:          0 PREFETCH ISSUED TO LOWER LEVEL:          0  ACCURACY: -nan
PSCL2 TIMELY PREFETCHES:          0 LATE PREFETCHES: 0 DROPPED PREFETCHES: 0
PSCL2 PREFETCHES SAME FILL-ORIGIN LEVEL: 0 DIFFERENT FILL-ORIGIN LEVEL: 0

LLC TOTAL     ACCESS:    3114532  HIT:    1266820  MISS:    1847712  HIT %:    40.6745  MISS %:    59.3255   MPKI: 36.9542
LLC LOAD      ACCESS:     644420  HIT:     188321  MISS:     456099  HIT %:    29.2233  MISS %:    70.7767   MPKI: 9.12198
LLC RFO       ACCESS:     269812  HIT:      72712  MISS:     197100  HIT %:    26.9491  MISS %:    73.0509   MPKI: 3.942
LLC PREFETCH  ACCESS:    1407614  HIT:     222987  MISS:    1184627  HIT %:    15.8415  MISS %:    84.1585   MPKI: 23.6925
AGUS PREFETCH L1 MISS: 0
LLC WRITEBACK ACCESS:     781790  HIT:     781353  MISS:        437  HIT %:    99.9441  MISS %:  0.0558974   MPKI: 0.00874
LLC LOAD TRANSLATION ACCESS:      10896  HIT:       1447  MISS:       9449  HIT %:    13.2801  MISS %:    86.7199   MPKI: 0.18898
LLC PREFETCH  REQUESTED:          0  ISSUED:          0  USEFUL:      61544  USELESS:    1132044
LLC USEFUL LOAD PREFETCHES:      61544 PREFETCH ISSUED TO LOWER LEVEL:    1184627  ACCURACY: 5.19522
LLC TIMELY PREFETCHES:      61544 LATE PREFETCHES: 0 DROPPED PREFETCHES: 0
LLC PREFETCHES SAME FILL-ORIGIN LEVEL: 0 DIFFERENT FILL-ORIGIN LEVEL: 0
LLC AVERAGE MISS LATENCY: 251.068 cycles
LLC RQ	ACCESS:     925142	FORWARD:          0	MERGED:          0	TO_CACHE:     925132
LLC WQ	ACCESS:     781791	FORWARD:         17	MERGED:          0	TO_CACHE:     781791
LLC PQ	ACCESS:    1407621	FORWARD:          0	MERGED:          0	TO_CACHE:    1407614

LLC Dense regions hint to LLC: 0

RAW hits: 149830
Loads Generated: 15008540
Loads sent to L1D: 14858707
Stores Generated: 3057587
Stores sent to L1D: 3057587
Major fault: 0 Minor fault: 7959
Allocated PAGES: 7959
Prefetcher final stats
Training Unit Size: 796
Addr table size: 239590 239609


Triggers: 4420728
Structural address exists: 3981684 90.0685
No Prediction: 439044 9.93149
Prefetches issued: 14727340 333.143
Useful Prefetches: 1102726
Useless Prefetches: 264145
Stream end: 1775875
No translation: 1790139121
%Stream divergence: 349110 7.89712
Stream divergence -- new stream: 0

DRAM Statistics
 CHANNEL 0
 RQ ROW_BUFFER_HIT:     526041  ROW_BUFFER_MISS:    1320761
 DBUS_CONGESTED:        432
 WQ ROW_BUFFER_HIT:     155909  ROW_BUFFER_MISS:     473392  FULL:          0

 AVG_CONGESTED_CYCLE: 4
 All warmup complete: 2
Channel 0 Bank busy for read cycles: 0
Channel 0 Bank busy for write cycles: 0
Channel 0
Rank 0
0banks busy for read cycles: 27530183
0banks busy for write cycles: 41285
1banks busy for read cycles: 22383368
1banks busy for write cycles: 5793543
2banks busy for read cycles: 13862441
2banks busy for write cycles: 2100169
3banks busy for read cycles: 10366894
3banks busy for write cycles: 1059200
4banks busy for read cycles: 8313955
4banks busy for write cycles: 636731
5banks busy for read cycles: 6337904
5banks busy for write cycles: 451156
6banks busy for read cycles: 5204935
6banks busy for write cycles: 429085
7banks busy for read cycles: 4095120
7banks busy for write cycles: 1529060
8banks busy for read cycles: 3207966
8banks busy for write cycles: 12075153

CPU 0 Branch Prediction Accuracy: 94.9774% MPKI: 9.10314 Average ROB Occupancy at Mispredict: 47.0611
Branch types
NOT_BRANCH: 40937768 81.8755%
BRANCH_DIRECT_JUMP: 51581 0.103162%
BRANCH_INDIRECT: 18 3.6e-05%
BRANCH_CONDITIONAL: 9006943 18.0139%
BRANCH_DIRECT_CALL: 1703 0.003406%
BRANCH_INDIRECT_CALL: 102 0.000204%
BRANCH_RETURN: 1801 0.003602%
BRANCH_OTHER: 0 0%

DRAM PAGES: 1048576
Allocated PAGES: 7959
