
*** ChampSim Multicore Out-of-Order Simulator ***

Warmup Instructions: 50000000
Simulation Instructions: 50000000
Number of CPUs: 1
LLC sets: 2048
LLC ways: 16
Off-chip DRAM Size: 4096 MB Channels: 1 Width: 64-bit Data Rate: 6400 MT/s
CPU 0 runs traces/SPEC-CPU2017/471.omnetpp-188B.champsimtrace.xz
.xz
CPU 0 Bimodal branch predictor
BTB has LRU replacement policy
ITLB has LRU replacement policy
DTLB has LRU replacement policy
STLB has LRU replacement policy
L1I has LRU replacement policy
L1D has LRU replacement policy
Ideal ISB Prefetching
L2C has LRU replacement policy
LLC has LRU replacement policy
Heartbeat CPU 0 instructions: 10000001 cycles: 3266800 heartbeat IPC: 3.0611 cumulative IPC: 3.0611 (Simulation time: 0 hr 0 min 41 sec) 
Heartbeat CPU 0 instructions: 20000000 cycles: 6491912 heartbeat IPC: 3.10067 cumulative IPC: 3.08076 (Simulation time: 0 hr 1 min 22 sec) 
Heartbeat CPU 0 instructions: 30000000 cycles: 9730528 heartbeat IPC: 3.08774 cumulative IPC: 3.08308 (Simulation time: 0 hr 2 min 6 sec) 
Heartbeat CPU 0 instructions: 40000000 cycles: 12961529 heartbeat IPC: 3.09502 cumulative IPC: 3.08606 (Simulation time: 0 hr 2 min 49 sec) 
Heartbeat CPU 0 instructions: 50000003 cycles: 16180822 heartbeat IPC: 3.10627 cumulative IPC: 3.09008 (Simulation time: 0 hr 3 min 34 sec) 

Warmup complete CPU 0 instructions: 50000003 cycles: 16180822 (Simulation time: 0 hr 3 min 34 sec) 

Heartbeat CPU 0 instructions: 60000000 cycles: 51816639 heartbeat IPC: 0.280616 cumulative IPC: 0.280616 (Simulation time: 0 hr 4 min 32 sec) 
Heartbeat CPU 0 instructions: 70000001 cycles: 85597799 heartbeat IPC: 0.296023 cumulative IPC: 0.288114 (Simulation time: 0 hr 5 min 30 sec) 
Heartbeat CPU 0 instructions: 80000000 cycles: 119821833 heartbeat IPC: 0.292192 cumulative IPC: 0.289461 (Simulation time: 0 hr 6 min 31 sec) 
Heartbeat CPU 0 instructions: 90000003 cycles: 153503735 heartbeat IPC: 0.296895 cumulative IPC: 0.291284 (Simulation time: 0 hr 7 min 30 sec) 
Heartbeat CPU 0 instructions: 100000000 cycles: 187734123 heartbeat IPC: 0.292138 cumulative IPC: 0.291455 (Simulation time: 0 hr 8 min 31 sec) 
Finished CPU 0 instructions: 50000000 cycles: 171553310 cumulative IPC: 0.291455 (Simulation time: 0 hr 8 min 31 sec) 

ChampSim completed all CPUs

Region of Interest Statistics

CPU 0 cumulative IPC: 0.291455 instructions: 50000000 cycles: 171553310
ITLB TOTAL     ACCESS:    8725183  HIT:    8707980  MISS:      17203  HIT %:    99.8028  MISS %:   0.197165   MPKI: 0.34406
ITLB LOAD TRANSLATION ACCESS:    8725183  HIT:    8707980  MISS:      17203  HIT %:    99.8028  MISS %:   0.197165   MPKI: 0.34406
ITLB PREFETCH  REQUESTED:          0  ISSUED:          0  USEFUL:          0  USELESS:          0
ITLB USEFUL LOAD PREFETCHES:          0 PREFETCH ISSUED TO LOWER LEVEL:          0  ACCURACY: -nan
ITLB TIMELY PREFETCHES:          0 LATE PREFETCHES: 0 DROPPED PREFETCHES: 0
ITLB PREFETCHES SAME FILL-ORIGIN LEVEL: 0 DIFFERENT FILL-ORIGIN LEVEL: 0
ITLB AVERAGE MISS LATENCY: 11.265 cycles
ITLB RQ	ACCESS:    9817425	FORWARD:          0	MERGED:    1084627	TO_CACHE:    8732798

DTLB TOTAL     ACCESS:   14681348  HIT:   13723986  MISS:     957362  HIT %:    93.4791  MISS %:    6.52094   MPKI: 19.1472
DTLB LOAD TRANSLATION ACCESS:   14681348  HIT:   13723986  MISS:     957362  HIT %:    93.4791  MISS %:    6.52094   MPKI: 19.1472
DTLB PREFETCH  REQUESTED:          0  ISSUED:          0  USEFUL:          0  USELESS:          0
DTLB USEFUL LOAD PREFETCHES:          0 PREFETCH ISSUED TO LOWER LEVEL:          0  ACCURACY: -nan
DTLB TIMELY PREFETCHES:          0 LATE PREFETCHES: 0 DROPPED PREFETCHES: 0
DTLB PREFETCHES SAME FILL-ORIGIN LEVEL: 0 DIFFERENT FILL-ORIGIN LEVEL: 0
DTLB AVERAGE MISS LATENCY: 25.529 cycles
DTLB RQ	ACCESS:   17866076	FORWARD:          0	MERGED:    3136697	TO_CACHE:   14729379

STLB TOTAL     ACCESS:     974565  HIT:     754076  MISS:     220489  HIT %:    77.3756  MISS %:    22.6244   MPKI: 4.40978
STLB LOAD TRANSLATION ACCESS:     974565  HIT:     754076  MISS:     220489  HIT %:    77.3756  MISS %:    22.6244   MPKI: 4.40978
STLB PREFETCH  REQUESTED:          0  ISSUED:          0  USEFUL:          0  USELESS:          0
STLB USEFUL LOAD PREFETCHES:          0 PREFETCH ISSUED TO LOWER LEVEL:          0  ACCURACY: -nan
STLB TIMELY PREFETCHES:          0 LATE PREFETCHES: 0 DROPPED PREFETCHES: 0
STLB PREFETCHES SAME FILL-ORIGIN LEVEL: 0 DIFFERENT FILL-ORIGIN LEVEL: 0
STLB AVERAGE MISS LATENCY: 71.3518 cycles
STLB RQ	ACCESS:     974565	FORWARD:          0	MERGED:          0	TO_CACHE:     974565

STLB Hit, L1D data hit: 0
STLB Hit, L2C data hit: 0
STLB Hit, LLC data hit: 0
STLB Hit, LLC data miss: 0
STLB STLB hints to L2: 0
L1D TOTAL     ACCESS:   17338968  HIT:   16167298  MISS:    1171670  HIT %:    93.2426  MISS %:    6.75744   MPKI: 23.4334
L1D LOAD      ACCESS:    9485579  HIT:    8487476  MISS:     998103  HIT %:    89.4777  MISS %:    10.5223   MPKI: 19.9621
L1D RFO       ACCESS:    7853389  HIT:    7679822  MISS:     173567  HIT %:    97.7899  MISS %:    2.21009   MPKI: 3.47134
L1D PREFETCH  REQUESTED:          0  ISSUED:          0  USEFUL:          0  USELESS:          0
L1D USEFUL LOAD PREFETCHES:          0 PREFETCH ISSUED TO LOWER LEVEL:          0  ACCURACY: -nan
L1D TIMELY PREFETCHES:          0 LATE PREFETCHES: 0 DROPPED PREFETCHES: 0
L1D PREFETCHES SAME FILL-ORIGIN LEVEL: 0 DIFFERENT FILL-ORIGIN LEVEL: 0
L1D AVERAGE MISS LATENCY: 84.5335 cycles
L1D RQ	ACCESS:   14089142	FORWARD:          0	MERGED:    4067139	TO_CACHE:    9568696
L1D WQ	ACCESS:    8476021	FORWARD:     453307	MERGED:     178641	TO_CACHE:    8297380

L1D UNIQUE REGIONS ACCESSED: 0
L1D REGIONS CONFLICTS: 0
L1D Cross Page Prefetch Requests: 0
L1D Same Page Prefetch Requests: 0
L1D ROI Sum of L1D PQ occupancy: 0
L1D PREFETCHES PUSHED FROM L2C: 0
L1I TOTAL     ACCESS:    9817127  HIT:    9815586  MISS:       1541  HIT %:    99.9843  MISS %:  0.0156971   MPKI: 0.03082
L1I LOAD      ACCESS:    9817127  HIT:    9815586  MISS:       1541  HIT %:    99.9843  MISS %:  0.0156971   MPKI: 0.03082
L1I PREFETCH  REQUESTED:          0  ISSUED:          0  USEFUL:          0  USELESS:          0
L1I USEFUL LOAD PREFETCHES:          0 PREFETCH ISSUED TO LOWER LEVEL:          0  ACCURACY: -nan
L1I TIMELY PREFETCHES:          0 LATE PREFETCHES: 0 DROPPED PREFETCHES: 0
L1I PREFETCHES SAME FILL-ORIGIN LEVEL: 0 DIFFERENT FILL-ORIGIN LEVEL: 0
L1I AVERAGE MISS LATENCY: 159.466 cycles
L1I RQ	ACCESS:   14782493	FORWARD:          0	MERGED:    4965068	TO_CACHE:    9817425

BTB TOTAL     ACCESS:   10008119  HIT:    9487971  MISS:     520148  HIT %:    94.8027  MISS %:    5.19726   MPKI: 10.403
BTB BRANCH_DIRECT_JUMP	ACCESS:     964405  HIT:     964243  MISS:        162
BTB BRANCH_INDIRECT	ACCESS:     140341  HIT:     116325  MISS:      24016
BTB BRANCH_CONDITIONAL	ACCESS:    5906166  HIT:    5905777  MISS:        389
BTB BRANCH_DIRECT_CALL	ACCESS:    1294152  HIT:    1293861  MISS:        291
BTB BRANCH_INDIRECT_CALL	ACCESS:     204449  HIT:     203146  MISS:       1303
BTB BRANCH_RETURN	ACCESS:    1498606  HIT:    1004619  MISS:     493987
BTB BRANCH_OTHER ACCESS:          0  HIT:          0  MISS:          0

L2C TOTAL     ACCESS:    2787324  HIT:    1410198  MISS:    1377126  HIT %:    50.5933  MISS %:    49.4067   MPKI: 27.5425
L2C LOAD      ACCESS:     999635  HIT:     655053  MISS:     344582  HIT %:    65.5292  MISS %:    34.4708   MPKI: 6.89164
L2C DATA LOAD MPKI: 6.86482
L2C INSTRUCTION LOAD MPKI: 0.02682
L2C RFO       ACCESS:     173567  HIT:      15442  MISS:     158125  HIT %:    8.89685  MISS %:    91.1031   MPKI: 3.1625
L2C PREFETCH  ACCESS:     892166  HIT:     111993  MISS:     780173  HIT %:    12.5529  MISS %:    87.4471   MPKI: 15.6035
AGUS PREFETCH L1 MISS: 0
L2C DATA PREFETCH MPKI: 15.6035
L2C INSTRUCTION PREFETCH MPKI: 0
L2C WRITEBACK ACCESS:     489700  HIT:     488121  MISS:       1579  HIT %:    99.6776  MISS %:   0.322442   MPKI: 0.03158
L2C LOAD TRANSLATION ACCESS:     232256  HIT:     139589  MISS:      92667  HIT %:    60.1014  MISS %:    39.8986   MPKI: 1.85334
L2C PREFETCH  REQUESTED:     903745  ISSUED:     902092  USEFUL:     559540  USELESS:     220603
L2C USEFUL LOAD PREFETCHES:     559540 PREFETCH ISSUED TO LOWER LEVEL:     782457  ACCURACY: 71.5106
L2C TIMELY PREFETCHES:     559540 LATE PREFETCHES: 2284 DROPPED PREFETCHES: 0
L2C PREFETCHES SAME FILL-ORIGIN LEVEL: 782457 DIFFERENT FILL-ORIGIN LEVEL: 0
L2C AVERAGE MISS LATENCY: 186.56 cycles
L2C RQ	ACCESS:    1405467	FORWARD:          0	MERGED:          0	TO_CACHE:    1405458
L2C WQ	ACCESS:     489700	FORWARD:          9	MERGED:          0	TO_CACHE:     489700
L2C PQ	ACCESS:     902092	FORWARD:          0	MERGED:        743	TO_CACHE:     901349

L2C Instructions Evicting Data 1263
L2C Translations Evicting Data 86244
L2C Data Evicting Data 1193332
L2C Instructions Evicting Instructions 7
L2C Translations Evicting Instructions 80
L2C Data Evicting Instructions 1250
L2C Instructions Evicting Translations 71
L2C Translations Evicting Translations 6343
L2C Data Evicting Translations 86957
L2C Dense regions hint from L2: 0
PSCL5 TOTAL     ACCESS:     220489  HIT:     220489  MISS:          0  HIT %:        100  MISS %:          0   MPKI: 0
PSCL5 LOAD TRANSLATION ACCESS:     220489  HIT:     220489  MISS:          0  HIT %:        100  MISS %:          0   MPKI: 0
PSCL5 PREFETCH  REQUESTED:          0  ISSUED:          0  USEFUL:          0  USELESS:          0
PSCL5 USEFUL LOAD PREFETCHES:          0 PREFETCH ISSUED TO LOWER LEVEL:          0  ACCURACY: -nan
PSCL5 TIMELY PREFETCHES:          0 LATE PREFETCHES: 0 DROPPED PREFETCHES: 0
PSCL5 PREFETCHES SAME FILL-ORIGIN LEVEL: 0 DIFFERENT FILL-ORIGIN LEVEL: 0

PSCL4 TOTAL     ACCESS:     220489  HIT:     220489  MISS:          0  HIT %:        100  MISS %:          0   MPKI: 0
PSCL4 LOAD TRANSLATION ACCESS:     220489  HIT:     220489  MISS:          0  HIT %:        100  MISS %:          0   MPKI: 0
PSCL4 PREFETCH  REQUESTED:          0  ISSUED:          0  USEFUL:          0  USELESS:          0
PSCL4 USEFUL LOAD PREFETCHES:          0 PREFETCH ISSUED TO LOWER LEVEL:          0  ACCURACY: -nan
PSCL4 TIMELY PREFETCHES:          0 LATE PREFETCHES: 0 DROPPED PREFETCHES: 0
PSCL4 PREFETCHES SAME FILL-ORIGIN LEVEL: 0 DIFFERENT FILL-ORIGIN LEVEL: 0

PSCL3 TOTAL     ACCESS:     220489  HIT:     220489  MISS:          0  HIT %:        100  MISS %:          0   MPKI: 0
PSCL3 LOAD TRANSLATION ACCESS:     220489  HIT:     220489  MISS:          0  HIT %:        100  MISS %:          0   MPKI: 0
PSCL3 PREFETCH  REQUESTED:          0  ISSUED:          0  USEFUL:          0  USELESS:          0
PSCL3 USEFUL LOAD PREFETCHES:          0 PREFETCH ISSUED TO LOWER LEVEL:          0  ACCURACY: -nan
PSCL3 TIMELY PREFETCHES:          0 LATE PREFETCHES: 0 DROPPED PREFETCHES: 0
PSCL3 PREFETCHES SAME FILL-ORIGIN LEVEL: 0 DIFFERENT FILL-ORIGIN LEVEL: 0

PSCL2 TOTAL     ACCESS:     220489  HIT:     208721  MISS:      11768  HIT %:    94.6628  MISS %:    5.33723   MPKI: 0.23536
PSCL2 LOAD TRANSLATION ACCESS:     220489  HIT:     208721  MISS:      11768  HIT %:    94.6628  MISS %:    5.33723   MPKI: 0.23536
PSCL2 PREFETCH  REQUESTED:          0  ISSUED:          0  USEFUL:          0  USELESS:          0
PSCL2 USEFUL LOAD PREFETCHES:          0 PREFETCH ISSUED TO LOWER LEVEL:          0  ACCURACY: -nan
PSCL2 TIMELY PREFETCHES:          0 LATE PREFETCHES: 0 DROPPED PREFETCHES: 0
PSCL2 PREFETCHES SAME FILL-ORIGIN LEVEL: 0 DIFFERENT FILL-ORIGIN LEVEL: 0

LLC TOTAL     ACCESS:    1819992  HIT:     791894  MISS:    1028098  HIT %:    43.5109  MISS %:    56.4891   MPKI: 20.562
LLC LOAD      ACCESS:     342310  HIT:      89498  MISS:     252812  HIT %:    26.1453  MISS %:    73.8547   MPKI: 5.05624
LLC RFO       ACCESS:     158110  HIT:      24424  MISS:     133686  HIT %:    15.4475  MISS %:    84.5525   MPKI: 2.67372
LLC PREFETCH  ACCESS:     782457  HIT:     174586  MISS:     607871  HIT %:    22.3125  MISS %:    77.6875   MPKI: 12.1574
AGUS PREFETCH L1 MISS: 0
LLC WRITEBACK ACCESS:     444448  HIT:     443751  MISS:        697  HIT %:    99.8432  MISS %:   0.156824   MPKI: 0.01394
LLC LOAD TRANSLATION ACCESS:      92667  HIT:      59635  MISS:      33032  HIT %:    64.3541  MISS %:    35.6459   MPKI: 0.66064
LLC PREFETCH  REQUESTED:          0  ISSUED:          0  USEFUL:      27183  USELESS:     579103
LLC USEFUL LOAD PREFETCHES:      27183 PREFETCH ISSUED TO LOWER LEVEL:     607871  ACCURACY: 4.47184
LLC TIMELY PREFETCHES:      27183 LATE PREFETCHES: 0 DROPPED PREFETCHES: 0
LLC PREFETCHES SAME FILL-ORIGIN LEVEL: 0 DIFFERENT FILL-ORIGIN LEVEL: 0
LLC AVERAGE MISS LATENCY: 209.721 cycles
LLC RQ	ACCESS:     593090	FORWARD:          0	MERGED:          0	TO_CACHE:     593087
LLC WQ	ACCESS:     444448	FORWARD:          3	MERGED:          0	TO_CACHE:     444448
LLC PQ	ACCESS:     782457	FORWARD:          0	MERGED:          0	TO_CACHE:     782457

LLC Dense regions hint to LLC: 0

RAW hits: 786291
Loads Generated: 14875433
Loads sent to L1D: 14089142
Stores Generated: 8476008
Stores sent to L1D: 8476021
Major fault: 0 Minor fault: 33441
Allocated PAGES: 33441
Prefetcher final stats
Training Unit Size: 452
Addr table size: 386424 386451


Triggers: 1991919
Structural address exists: 411657 20.6664
No Prediction: 1580262 79.3336
Prefetches issued: 1644412 82.5542
Useful Prefetches: 559540
Useless Prefetches: 220603
Stream end: 250960
No translation: 254091029
%Stream divergence: 211124 10.599
Stream divergence -- new stream: 0

DRAM Statistics
 CHANNEL 0
 RQ ROW_BUFFER_HIT:     133898  ROW_BUFFER_MISS:     893492
 DBUS_CONGESTED:        114
 WQ ROW_BUFFER_HIT:      48725  ROW_BUFFER_MISS:     320691  FULL:          0

 AVG_CONGESTED_CYCLE: 5
 All warmup complete: 2
Channel 0 Bank busy for read cycles: 0
Channel 0 Bank busy for write cycles: 0
Channel 0
Rank 0
0banks busy for read cycles: 77964144
0banks busy for write cycles: 109215
1banks busy for read cycles: 31974263
1banks busy for write cycles: 13741044
2banks busy for read cycles: 13233537
2banks busy for write cycles: 6534346
3banks busy for read cycles: 6257895
3banks busy for write cycles: 3830041
4banks busy for read cycles: 3851095
4banks busy for write cycles: 2490987
5banks busy for read cycles: 3606666
5banks busy for write cycles: 1578822
6banks busy for read cycles: 2762817
6banks busy for write cycles: 977952
7banks busy for read cycles: 1309522
7banks busy for write cycles: 547595
8banks busy for read cycles: 540671
8banks busy for write cycles: 242699

CPU 0 Branch Prediction Accuracy: 94.0755% MPKI: 14.2353 Average ROB Occupancy at Mispredict: 25.5808
Branch types
NOT_BRANCH: 37985796 75.9716%
BRANCH_DIRECT_JUMP: 964405 1.92881%
BRANCH_INDIRECT: 140341 0.280682%
BRANCH_CONDITIONAL: 7911981 15.824%
BRANCH_DIRECT_CALL: 1294152 2.5883%
BRANCH_INDIRECT_CALL: 204449 0.408898%
BRANCH_RETURN: 1498606 2.99721%
BRANCH_OTHER: 0 0%

DRAM PAGES: 1048576
Allocated PAGES: 33441
