
*** ChampSim Multicore Out-of-Order Simulator ***

Warmup Instructions: 50000000
Simulation Instructions: 50000000
Number of CPUs: 1
LLC sets: 2048
LLC ways: 16
Off-chip DRAM Size: 4096 MB Channels: 1 Width: 64-bit Data Rate: 6400 MT/s
CPU 0 runs traces/SPEC-CPU2017/471.omnetpp-188B.champsimtrace.xz
.xz
CPU 0 Bimodal branch predictor
BTB has LRU replacement policy
ITLB has LRU replacement policy
DTLB has LRU replacement policy
STLB has LRU replacement policy
L1I has LRU replacement policy
L1D has LRU replacement policy
Ideal ISB Prefetching
L2C has LRU replacement policy
LLC has LRU replacement policy
Heartbeat CPU 0 instructions: 10000001 cycles: 3265314 heartbeat IPC: 3.06249 cumulative IPC: 3.06249 (Simulation time: 0 hr 0 min 45 sec) 
Heartbeat CPU 0 instructions: 20000000 cycles: 6489544 heartbeat IPC: 3.10152 cumulative IPC: 3.08188 (Simulation time: 0 hr 1 min 31 sec) 
Heartbeat CPU 0 instructions: 30000000 cycles: 9725909 heartbeat IPC: 3.08989 cumulative IPC: 3.08454 (Simulation time: 0 hr 2 min 21 sec) 
Heartbeat CPU 0 instructions: 40000000 cycles: 12955817 heartbeat IPC: 3.09606 cumulative IPC: 3.08742 (Simulation time: 0 hr 3 min 13 sec) 
Heartbeat CPU 0 instructions: 50000003 cycles: 16172347 heartbeat IPC: 3.10894 cumulative IPC: 3.0917 (Simulation time: 0 hr 4 min 6 sec) 

Warmup complete CPU 0 instructions: 50000003 cycles: 16172347 (Simulation time: 0 hr 4 min 6 sec) 

Heartbeat CPU 0 instructions: 60000000 cycles: 50854335 heartbeat IPC: 0.288334 cumulative IPC: 0.288334 (Simulation time: 0 hr 5 min 11 sec) 
Heartbeat CPU 0 instructions: 70000001 cycles: 83476900 heartbeat IPC: 0.306536 cumulative IPC: 0.297157 (Simulation time: 0 hr 6 min 18 sec) 
Heartbeat CPU 0 instructions: 80000000 cycles: 116266097 heartbeat IPC: 0.304978 cumulative IPC: 0.299719 (Simulation time: 0 hr 7 min 27 sec) 
Heartbeat CPU 0 instructions: 90000003 cycles: 148338736 heartbeat IPC: 0.311792 cumulative IPC: 0.302649 (Simulation time: 0 hr 8 min 35 sec) 
Heartbeat CPU 0 instructions: 100000000 cycles: 181081851 heartbeat IPC: 0.305408 cumulative IPC: 0.303197 (Simulation time: 0 hr 9 min 44 sec) 
Finished CPU 0 instructions: 50000000 cycles: 164909513 cumulative IPC: 0.303197 (Simulation time: 0 hr 9 min 44 sec) 

ChampSim completed all CPUs

Region of Interest Statistics

CPU 0 cumulative IPC: 0.303197 instructions: 50000000 cycles: 164909513
ITLB TOTAL     ACCESS:    8725162  HIT:    8707959  MISS:      17203  HIT %:    99.8028  MISS %:   0.197165   MPKI: 0.34406
ITLB LOAD TRANSLATION ACCESS:    8725162  HIT:    8707959  MISS:      17203  HIT %:    99.8028  MISS %:   0.197165   MPKI: 0.34406
ITLB PREFETCH  REQUESTED:          0  ISSUED:          0  USEFUL:          0  USELESS:          0
ITLB USEFUL LOAD PREFETCHES:          0 PREFETCH ISSUED TO LOWER LEVEL:          0  ACCURACY: -nan
ITLB TIMELY PREFETCHES:          0 LATE PREFETCHES: 0 DROPPED PREFETCHES: 0
ITLB PREFETCHES SAME FILL-ORIGIN LEVEL: 0 DIFFERENT FILL-ORIGIN LEVEL: 0
ITLB AVERAGE MISS LATENCY: 11.279 cycles
ITLB RQ	ACCESS:    9817417	FORWARD:          0	MERGED:    1084640	TO_CACHE:    8732777

DTLB TOTAL     ACCESS:   14685298  HIT:   13727926  MISS:     957372  HIT %:    93.4807  MISS %:    6.51925   MPKI: 19.1474
DTLB LOAD TRANSLATION ACCESS:   14685298  HIT:   13727926  MISS:     957372  HIT %:    93.4807  MISS %:    6.51925   MPKI: 19.1474
DTLB PREFETCH  REQUESTED:          0  ISSUED:          0  USEFUL:          0  USELESS:          0
DTLB USEFUL LOAD PREFETCHES:          0 PREFETCH ISSUED TO LOWER LEVEL:          0  ACCURACY: -nan
DTLB TIMELY PREFETCHES:          0 LATE PREFETCHES: 0 DROPPED PREFETCHES: 0
DTLB PREFETCHES SAME FILL-ORIGIN LEVEL: 0 DIFFERENT FILL-ORIGIN LEVEL: 0
DTLB AVERAGE MISS LATENCY: 25.8773 cycles
DTLB RQ	ACCESS:   17870250	FORWARD:          0	MERGED:    3136687	TO_CACHE:   14733563

STLB TOTAL     ACCESS:     974575  HIT:     754086  MISS:     220489  HIT %:    77.3759  MISS %:    22.6241   MPKI: 4.40978
STLB LOAD TRANSLATION ACCESS:     974575  HIT:     754086  MISS:     220489  HIT %:    77.3759  MISS %:    22.6241   MPKI: 4.40978
STLB PREFETCH  REQUESTED:          0  ISSUED:          0  USEFUL:          0  USELESS:          0
STLB USEFUL LOAD PREFETCHES:          0 PREFETCH ISSUED TO LOWER LEVEL:          0  ACCURACY: -nan
STLB TIMELY PREFETCHES:          0 LATE PREFETCHES: 0 DROPPED PREFETCHES: 0
STLB PREFETCHES SAME FILL-ORIGIN LEVEL: 0 DIFFERENT FILL-ORIGIN LEVEL: 0
STLB AVERAGE MISS LATENCY: 72.8655 cycles
STLB RQ	ACCESS:     974575	FORWARD:          0	MERGED:          0	TO_CACHE:     974575

STLB Hit, L1D data hit: 0
STLB Hit, L2C data hit: 0
STLB Hit, LLC data hit: 0
STLB Hit, LLC data miss: 0
STLB STLB hints to L2: 0
L1D TOTAL     ACCESS:   17349767  HIT:   16178096  MISS:    1171671  HIT %:    93.2468  MISS %:    6.75324   MPKI: 23.4334
L1D LOAD      ACCESS:    9489926  HIT:    8491827  MISS:     998099  HIT %:    89.4825  MISS %:    10.5175   MPKI: 19.962
L1D RFO       ACCESS:    7859841  HIT:    7686269  MISS:     173572  HIT %:    97.7917  MISS %:    2.20834   MPKI: 3.47144
L1D PREFETCH  REQUESTED:          0  ISSUED:          0  USEFUL:          0  USELESS:          0
L1D USEFUL LOAD PREFETCHES:          0 PREFETCH ISSUED TO LOWER LEVEL:          0  ACCURACY: -nan
L1D TIMELY PREFETCHES:          0 LATE PREFETCHES: 0 DROPPED PREFETCHES: 0
L1D PREFETCHES SAME FILL-ORIGIN LEVEL: 0 DIFFERENT FILL-ORIGIN LEVEL: 0
L1D AVERAGE MISS LATENCY: 76.42 cycles
L1D RQ	ACCESS:   14095880	FORWARD:          0	MERGED:    4070380	TO_CACHE:    9570174
L1D WQ	ACCESS:    8476021	FORWARD:     455326	MERGED:     175945	TO_CACHE:    8300076

L1D UNIQUE REGIONS ACCESSED: 0
L1D REGIONS CONFLICTS: 0
L1D Cross Page Prefetch Requests: 0
L1D Same Page Prefetch Requests: 0
L1D ROI Sum of L1D PQ occupancy: 0
L1D PREFETCHES PUSHED FROM L2C: 0
L1I TOTAL     ACCESS:    9817120  HIT:    9815579  MISS:       1541  HIT %:    99.9843  MISS %:  0.0156971   MPKI: 0.03082
L1I LOAD      ACCESS:    9817120  HIT:    9815579  MISS:       1541  HIT %:    99.9843  MISS %:  0.0156971   MPKI: 0.03082
L1I PREFETCH  REQUESTED:          0  ISSUED:          0  USEFUL:          0  USELESS:          0
L1I USEFUL LOAD PREFETCHES:          0 PREFETCH ISSUED TO LOWER LEVEL:          0  ACCURACY: -nan
L1I TIMELY PREFETCHES:          0 LATE PREFETCHES: 0 DROPPED PREFETCHES: 0
L1I PREFETCHES SAME FILL-ORIGIN LEVEL: 0 DIFFERENT FILL-ORIGIN LEVEL: 0
L1I AVERAGE MISS LATENCY: 160.348 cycles
L1I RQ	ACCESS:   14782367	FORWARD:          0	MERGED:    4964950	TO_CACHE:    9817417

BTB TOTAL     ACCESS:   10008119  HIT:    9487971  MISS:     520148  HIT %:    94.8027  MISS %:    5.19726   MPKI: 10.403
BTB BRANCH_DIRECT_JUMP	ACCESS:     964405  HIT:     964243  MISS:        162
BTB BRANCH_INDIRECT	ACCESS:     140341  HIT:     116325  MISS:      24016
BTB BRANCH_CONDITIONAL	ACCESS:    5906166  HIT:    5905777  MISS:        389
BTB BRANCH_DIRECT_CALL	ACCESS:    1294152  HIT:    1293861  MISS:        291
BTB BRANCH_INDIRECT_CALL	ACCESS:     204449  HIT:     203146  MISS:       1303
BTB BRANCH_RETURN	ACCESS:    1498606  HIT:    1004619  MISS:     493987
BTB BRANCH_OTHER ACCESS:          0  HIT:          0  MISS:          0

L2C TOTAL     ACCESS:    6558290  HIT:    5150199  MISS:    1408091  HIT %:    78.5296  MISS %:    21.4704   MPKI: 28.1618
L2C LOAD      ACCESS:     999631  HIT:     715183  MISS:     284448  HIT %:    71.5447  MISS %:    28.4553   MPKI: 5.68896
L2C DATA LOAD MPKI: 5.662
L2C INSTRUCTION LOAD MPKI: 0.02696
L2C RFO       ACCESS:     173572  HIT:      16829  MISS:     156743  HIT %:    9.69569  MISS %:    90.3043   MPKI: 3.13486
L2C PREFETCH  ACCESS:    4663030  HIT:    3792448  MISS:     870582  HIT %:    81.3301  MISS %:    18.6699   MPKI: 17.4116
AGUS PREFETCH L1 MISS: 0
L2C DATA PREFETCH MPKI: 17.4116
L2C INSTRUCTION PREFETCH MPKI: 0
L2C WRITEBACK ACCESS:     489801  HIT:     488088  MISS:       1713  HIT %:    99.6503  MISS %:   0.349734   MPKI: 0.03426
L2C LOAD TRANSLATION ACCESS:     232256  HIT:     137651  MISS:      94605  HIT %:    59.2669  MISS %:    40.7331   MPKI: 1.8921
L2C PREFETCH  REQUESTED:    4934646  ISSUED:    4731071  USEFUL:     622607  USELESS:     247800
L2C USEFUL LOAD PREFETCHES:     622607 PREFETCH ISSUED TO LOWER LEVEL:     872103  ACCURACY: 71.3915
L2C TIMELY PREFETCHES:     622607 LATE PREFETCHES: 1521 DROPPED PREFETCHES: 0
L2C PREFETCHES SAME FILL-ORIGIN LEVEL: 872103 DIFFERENT FILL-ORIGIN LEVEL: 0
L2C AVERAGE MISS LATENCY: 171.058 cycles
L2C RQ	ACCESS:    1405468	FORWARD:          0	MERGED:          0	TO_CACHE:    1405459
L2C WQ	ACCESS:     489801	FORWARD:          9	MERGED:          0	TO_CACHE:     489801
L2C PQ	ACCESS:    4731071	FORWARD:          0	MERGED:       3444	TO_CACHE:    4727627

L2C Instructions Evicting Data 1269
L2C Translations Evicting Data 88169
L2C Data Evicting Data 1220279
L2C Instructions Evicting Instructions 5
L2C Translations Evicting Instructions 72
L2C Data Evicting Instructions 1268
L2C Instructions Evicting Translations 74
L2C Translations Evicting Translations 6364
L2C Data Evicting Translations 88878
L2C Dense regions hint from L2: 0
PSCL5 TOTAL     ACCESS:     220489  HIT:     220489  MISS:          0  HIT %:        100  MISS %:          0   MPKI: 0
PSCL5 LOAD TRANSLATION ACCESS:     220489  HIT:     220489  MISS:          0  HIT %:        100  MISS %:          0   MPKI: 0
PSCL5 PREFETCH  REQUESTED:          0  ISSUED:          0  USEFUL:          0  USELESS:          0
PSCL5 USEFUL LOAD PREFETCHES:          0 PREFETCH ISSUED TO LOWER LEVEL:          0  ACCURACY: -nan
PSCL5 TIMELY PREFETCHES:          0 LATE PREFETCHES: 0 DROPPED PREFETCHES: 0
PSCL5 PREFETCHES SAME FILL-ORIGIN LEVEL: 0 DIFFERENT FILL-ORIGIN LEVEL: 0

PSCL4 TOTAL     ACCESS:     220489  HIT:     220489  MISS:          0  HIT %:        100  MISS %:          0   MPKI: 0
PSCL4 LOAD TRANSLATION ACCESS:     220489  HIT:     220489  MISS:          0  HIT %:        100  MISS %:          0   MPKI: 0
PSCL4 PREFETCH  REQUESTED:          0  ISSUED:          0  USEFUL:          0  USELESS:          0
PSCL4 USEFUL LOAD PREFETCHES:          0 PREFETCH ISSUED TO LOWER LEVEL:          0  ACCURACY: -nan
PSCL4 TIMELY PREFETCHES:          0 LATE PREFETCHES: 0 DROPPED PREFETCHES: 0
PSCL4 PREFETCHES SAME FILL-ORIGIN LEVEL: 0 DIFFERENT FILL-ORIGIN LEVEL: 0

PSCL3 TOTAL     ACCESS:     220489  HIT:     220489  MISS:          0  HIT %:        100  MISS %:          0   MPKI: 0
PSCL3 LOAD TRANSLATION ACCESS:     220489  HIT:     220489  MISS:          0  HIT %:        100  MISS %:          0   MPKI: 0
PSCL3 PREFETCH  REQUESTED:          0  ISSUED:          0  USEFUL:          0  USELESS:          0
PSCL3 USEFUL LOAD PREFETCHES:          0 PREFETCH ISSUED TO LOWER LEVEL:          0  ACCURACY: -nan
PSCL3 TIMELY PREFETCHES:          0 LATE PREFETCHES: 0 DROPPED PREFETCHES: 0
PSCL3 PREFETCHES SAME FILL-ORIGIN LEVEL: 0 DIFFERENT FILL-ORIGIN LEVEL: 0

PSCL2 TOTAL     ACCESS:     220489  HIT:     208721  MISS:      11768  HIT %:    94.6628  MISS %:    5.33723   MPKI: 0.23536
PSCL2 LOAD TRANSLATION ACCESS:     220489  HIT:     208721  MISS:      11768  HIT %:    94.6628  MISS %:    5.33723   MPKI: 0.23536
PSCL2 PREFETCH  REQUESTED:          0  ISSUED:          0  USEFUL:          0  USELESS:          0
PSCL2 USEFUL LOAD PREFETCHES:          0 PREFETCH ISSUED TO LOWER LEVEL:          0  ACCURACY: -nan
PSCL2 TIMELY PREFETCHES:          0 LATE PREFETCHES: 0 DROPPED PREFETCHES: 0
PSCL2 PREFETCHES SAME FILL-ORIGIN LEVEL: 0 DIFFERENT FILL-ORIGIN LEVEL: 0

LLC TOTAL     ACCESS:    1851449  HIT:     808185  MISS:    1043264  HIT %:    43.6515  MISS %:    56.3485   MPKI: 20.8653
LLC LOAD      ACCESS:     282945  HIT:      77542  MISS:     205403  HIT %:    27.4053  MISS %:    72.5947   MPKI: 4.10806
LLC RFO       ACCESS:     156724  HIT:      24096  MISS:     132628  HIT %:    15.3748  MISS %:    84.6252   MPKI: 2.65256
LLC PREFETCH  ACCESS:     872103  HIT:     201156  MISS:     670947  HIT %:    23.0656  MISS %:    76.9344   MPKI: 13.4189
AGUS PREFETCH L1 MISS: 0
LLC WRITEBACK ACCESS:     445072  HIT:     444178  MISS:        894  HIT %:    99.7991  MISS %:   0.200866   MPKI: 0.01788
LLC LOAD TRANSLATION ACCESS:      94605  HIT:      61213  MISS:      33392  HIT %:    64.7038  MISS %:    35.2962   MPKI: 0.66784
LLC PREFETCH  REQUESTED:          0  ISSUED:          0  USEFUL:      22123  USELESS:     646924
LLC USEFUL LOAD PREFETCHES:      22123 PREFETCH ISSUED TO LOWER LEVEL:     670947  ACCURACY: 3.29728
LLC TIMELY PREFETCHES:      22123 LATE PREFETCHES: 0 DROPPED PREFETCHES: 0
LLC PREFETCHES SAME FILL-ORIGIN LEVEL: 0 DIFFERENT FILL-ORIGIN LEVEL: 0
LLC AVERAGE MISS LATENCY: 190.401 cycles
LLC RQ	ACCESS:     534275	FORWARD:          0	MERGED:          0	TO_CACHE:     534274
LLC WQ	ACCESS:     445072	FORWARD:          1	MERGED:          0	TO_CACHE:     445072
LLC PQ	ACCESS:     872103	FORWARD:          0	MERGED:          0	TO_CACHE:     872103

LLC Dense regions hint to LLC: 0

RAW hits: 779555
Loads Generated: 14875435
Loads sent to L1D: 14095880
Stores Generated: 8476009
Stores sent to L1D: 8476021
Major fault: 0 Minor fault: 33441
Allocated PAGES: 33441
Prefetcher final stats
Training Unit Size: 452
Addr table size: 386486 386513


Triggers: 1991923
Structural address exists: 1542215 77.4234
No Prediction: 449708 22.5766
Prefetches issued: 7838135 393.496
Useful Prefetches: 622607
Useless Prefetches: 247800
Stream end: 564115
No translation: 566132100
%Stream divergence: 211162 10.6009
Stream divergence -- new stream: 0

DRAM Statistics
 CHANNEL 0
 RQ ROW_BUFFER_HIT:      77849  ROW_BUFFER_MISS:     964512
 DBUS_CONGESTED:        459
 WQ ROW_BUFFER_HIT:      62825  ROW_BUFFER_MISS:     307770  FULL:          0

 AVG_CONGESTED_CYCLE: 5
 All warmup complete: 2
Channel 0 Bank busy for read cycles: 0
Channel 0 Bank busy for write cycles: 0
Channel 0
Rank 0
0banks busy for read cycles: 58172350
0banks busy for write cycles: 103572
1banks busy for read cycles: 35782907
1banks busy for write cycles: 13319844
2banks busy for read cycles: 20387817
2banks busy for write cycles: 7355401
3banks busy for read cycles: 10152583
3banks busy for write cycles: 4460814
4banks busy for read cycles: 4628743
4banks busy for write cycles: 2784794
5banks busy for read cycles: 2118432
5banks busy for write cycles: 1773803
6banks busy for read cycles: 1197423
6banks busy for write cycles: 1077484
7banks busy for read cycles: 537049
7banks busy for write cycles: 600677
8banks busy for read cycles: 188276
8banks busy for write cycles: 267545

CPU 0 Branch Prediction Accuracy: 94.0755% MPKI: 14.2353 Average ROB Occupancy at Mispredict: 25.4677
Branch types
NOT_BRANCH: 37985796 75.9716%
BRANCH_DIRECT_JUMP: 964405 1.92881%
BRANCH_INDIRECT: 140341 0.280682%
BRANCH_CONDITIONAL: 7911981 15.824%
BRANCH_DIRECT_CALL: 1294152 2.5883%
BRANCH_INDIRECT_CALL: 204449 0.408898%
BRANCH_RETURN: 1498606 2.99721%
BRANCH_OTHER: 0 0%

DRAM PAGES: 1048576
Allocated PAGES: 33441
