
*** ChampSim Multicore Out-of-Order Simulator ***

Warmup Instructions: 50000000
Simulation Instructions: 50000000
Number of CPUs: 1
LLC sets: 2048
LLC ways: 16
Off-chip DRAM Size: 4096 MB Channels: 1 Width: 64-bit Data Rate: 6400 MT/s
CPU 0 runs traces/SPEC-CPU2017/471.omnetpp-188B.champsimtrace.xz
.xz
CPU 0 Bimodal branch predictor
BTB has LRU replacement policy
ITLB has LRU replacement policy
DTLB has LRU replacement policy
STLB has LRU replacement policy
L1I has LRU replacement policy
L1D has LRU replacement policy
Ideal ISB Prefetching
L2C has LRU replacement policy
LLC has LRU replacement policy
Heartbeat CPU 0 instructions: 10000001 cycles: 3264992 heartbeat IPC: 3.06279 cumulative IPC: 3.06279 (Simulation time: 0 hr 0 min 42 sec) 
Heartbeat CPU 0 instructions: 20000000 cycles: 6488898 heartbeat IPC: 3.10183 cumulative IPC: 3.08219 (Simulation time: 0 hr 1 min 27 sec) 
Heartbeat CPU 0 instructions: 30000000 cycles: 9723272 heartbeat IPC: 3.09179 cumulative IPC: 3.08538 (Simulation time: 0 hr 2 min 13 sec) 
Heartbeat CPU 0 instructions: 40000000 cycles: 12952124 heartbeat IPC: 3.09708 cumulative IPC: 3.0883 (Simulation time: 0 hr 3 min 3 sec) 
Heartbeat CPU 0 instructions: 50000003 cycles: 16165729 heartbeat IPC: 3.11177 cumulative IPC: 3.09296 (Simulation time: 0 hr 3 min 51 sec) 

Warmup complete CPU 0 instructions: 50000003 cycles: 16165729 (Simulation time: 0 hr 3 min 51 sec) 

Heartbeat CPU 0 instructions: 60000000 cycles: 50277235 heartbeat IPC: 0.293156 cumulative IPC: 0.293156 (Simulation time: 0 hr 4 min 52 sec) 
Heartbeat CPU 0 instructions: 70000001 cycles: 82253021 heartbeat IPC: 0.312737 cumulative IPC: 0.30263 (Simulation time: 0 hr 5 min 56 sec) 
Heartbeat CPU 0 instructions: 80000000 cycles: 114100590 heartbeat IPC: 0.313996 cumulative IPC: 0.306326 (Simulation time: 0 hr 7 min 1 sec) 
Heartbeat CPU 0 instructions: 90000003 cycles: 145216395 heartbeat IPC: 0.32138 cumulative IPC: 0.309956 (Simulation time: 0 hr 8 min 4 sec) 
Heartbeat CPU 0 instructions: 100000000 cycles: 176888389 heartbeat IPC: 0.315736 cumulative IPC: 0.311095 (Simulation time: 0 hr 9 min 9 sec) 
Finished CPU 0 instructions: 50000000 cycles: 160722669 cumulative IPC: 0.311095 (Simulation time: 0 hr 9 min 9 sec) 

ChampSim completed all CPUs

Region of Interest Statistics

CPU 0 cumulative IPC: 0.311095 instructions: 50000000 cycles: 160722669
ITLB TOTAL     ACCESS:    8725139  HIT:    8707936  MISS:      17203  HIT %:    99.8028  MISS %:   0.197166   MPKI: 0.34406
ITLB LOAD TRANSLATION ACCESS:    8725139  HIT:    8707936  MISS:      17203  HIT %:    99.8028  MISS %:   0.197166   MPKI: 0.34406
ITLB PREFETCH  REQUESTED:          0  ISSUED:          0  USEFUL:          0  USELESS:          0
ITLB USEFUL LOAD PREFETCHES:          0 PREFETCH ISSUED TO LOWER LEVEL:          0  ACCURACY: -nan
ITLB TIMELY PREFETCHES:          0 LATE PREFETCHES: 0 DROPPED PREFETCHES: 0
ITLB PREFETCHES SAME FILL-ORIGIN LEVEL: 0 DIFFERENT FILL-ORIGIN LEVEL: 0
ITLB AVERAGE MISS LATENCY: 11.3859 cycles
ITLB RQ	ACCESS:    9817417	FORWARD:          0	MERGED:    1084662	TO_CACHE:    8732755

DTLB TOTAL     ACCESS:   14698118  HIT:   13740778  MISS:     957340  HIT %:    93.4866  MISS %:    6.51335   MPKI: 19.1468
DTLB LOAD TRANSLATION ACCESS:   14698118  HIT:   13740778  MISS:     957340  HIT %:    93.4866  MISS %:    6.51335   MPKI: 19.1468
DTLB PREFETCH  REQUESTED:          0  ISSUED:          0  USEFUL:          0  USELESS:          0
DTLB USEFUL LOAD PREFETCHES:          0 PREFETCH ISSUED TO LOWER LEVEL:          0  ACCURACY: -nan
DTLB TIMELY PREFETCHES:          0 LATE PREFETCHES: 0 DROPPED PREFETCHES: 0
DTLB PREFETCHES SAME FILL-ORIGIN LEVEL: 0 DIFFERENT FILL-ORIGIN LEVEL: 0
DTLB AVERAGE MISS LATENCY: 26.283 cycles
DTLB RQ	ACCESS:   17877543	FORWARD:          0	MERGED:    3130395	TO_CACHE:   14747148

STLB TOTAL     ACCESS:     974543  HIT:     754055  MISS:     220488  HIT %:    77.3752  MISS %:    22.6248   MPKI: 4.40976
STLB LOAD TRANSLATION ACCESS:     974543  HIT:     754055  MISS:     220488  HIT %:    77.3752  MISS %:    22.6248   MPKI: 4.40976
STLB PREFETCH  REQUESTED:          0  ISSUED:          0  USEFUL:          0  USELESS:          0
STLB USEFUL LOAD PREFETCHES:          0 PREFETCH ISSUED TO LOWER LEVEL:          0  ACCURACY: -nan
STLB TIMELY PREFETCHES:          0 LATE PREFETCHES: 0 DROPPED PREFETCHES: 0
STLB PREFETCHES SAME FILL-ORIGIN LEVEL: 0 DIFFERENT FILL-ORIGIN LEVEL: 0
STLB AVERAGE MISS LATENCY: 74.6333 cycles
STLB RQ	ACCESS:     974543	FORWARD:          0	MERGED:          0	TO_CACHE:     974543

STLB Hit, L1D data hit: 0
STLB Hit, L2C data hit: 0
STLB Hit, LLC data hit: 0
STLB Hit, LLC data miss: 0
STLB STLB hints to L2: 0
L1D TOTAL     ACCESS:   17364641  HIT:   16192971  MISS:    1171670  HIT %:    93.2526  MISS %:    6.74745   MPKI: 23.4334
L1D LOAD      ACCESS:    9498845  HIT:    8500853  MISS:     997992  HIT %:    89.4935  MISS %:    10.5065   MPKI: 19.9598
L1D RFO       ACCESS:    7865796  HIT:    7692118  MISS:     173678  HIT %:     97.792  MISS %:    2.20802   MPKI: 3.47356
L1D PREFETCH  REQUESTED:          0  ISSUED:          0  USEFUL:          0  USELESS:          0
L1D USEFUL LOAD PREFETCHES:          0 PREFETCH ISSUED TO LOWER LEVEL:          0  ACCURACY: -nan
L1D TIMELY PREFETCHES:          0 LATE PREFETCHES: 0 DROPPED PREFETCHES: 0
L1D PREFETCHES SAME FILL-ORIGIN LEVEL: 0 DIFFERENT FILL-ORIGIN LEVEL: 0
L1D AVERAGE MISS LATENCY: 70.4917 cycles
L1D RQ	ACCESS:   14104330	FORWARD:          0	MERGED:    4072456	TO_CACHE:    9575574
L1D WQ	ACCESS:    8476021	FORWARD:     456300	MERGED:     174052	TO_CACHE:    8301969

L1D UNIQUE REGIONS ACCESSED: 0
L1D REGIONS CONFLICTS: 0
L1D Cross Page Prefetch Requests: 0
L1D Same Page Prefetch Requests: 0
L1D ROI Sum of L1D PQ occupancy: 0
L1D PREFETCHES PUSHED FROM L2C: 0
L1I TOTAL     ACCESS:    9817116  HIT:    9815575  MISS:       1541  HIT %:    99.9843  MISS %:  0.0156971   MPKI: 0.03082
L1I LOAD      ACCESS:    9817116  HIT:    9815575  MISS:       1541  HIT %:    99.9843  MISS %:  0.0156971   MPKI: 0.03082
L1I PREFETCH  REQUESTED:          0  ISSUED:          0  USEFUL:          0  USELESS:          0
L1I USEFUL LOAD PREFETCHES:          0 PREFETCH ISSUED TO LOWER LEVEL:          0  ACCURACY: -nan
L1I TIMELY PREFETCHES:          0 LATE PREFETCHES: 0 DROPPED PREFETCHES: 0
L1I PREFETCHES SAME FILL-ORIGIN LEVEL: 0 DIFFERENT FILL-ORIGIN LEVEL: 0
L1I AVERAGE MISS LATENCY: 162.093 cycles
L1I RQ	ACCESS:   14781531	FORWARD:          0	MERGED:    4964114	TO_CACHE:    9817417

BTB TOTAL     ACCESS:   10008119  HIT:    9487971  MISS:     520148  HIT %:    94.8027  MISS %:    5.19726   MPKI: 10.403
BTB BRANCH_DIRECT_JUMP	ACCESS:     964405  HIT:     964243  MISS:        162
BTB BRANCH_INDIRECT	ACCESS:     140341  HIT:     116325  MISS:      24016
BTB BRANCH_CONDITIONAL	ACCESS:    5906166  HIT:    5905777  MISS:        389
BTB BRANCH_DIRECT_CALL	ACCESS:    1294152  HIT:    1293861  MISS:        291
BTB BRANCH_INDIRECT_CALL	ACCESS:     204449  HIT:     203146  MISS:       1303
BTB BRANCH_RETURN	ACCESS:    1498606  HIT:    1004619  MISS:     493987
BTB BRANCH_OTHER ACCESS:          0  HIT:          0  MISS:          0

L2C TOTAL     ACCESS:    7186651  HIT:    5712627  MISS:    1474024  HIT %:    79.4894  MISS %:    20.5106   MPKI: 29.4805
L2C LOAD      ACCESS:     999526  HIT:     755683  MISS:     243843  HIT %:    75.6041  MISS %:    24.3959   MPKI: 4.87686
L2C DATA LOAD MPKI: 4.84972
L2C INSTRUCTION LOAD MPKI: 0.02714
L2C RFO       ACCESS:     173678  HIT:      18476  MISS:     155202  HIT %:    10.6381  MISS %:    89.3619   MPKI: 3.10404
L2C PREFETCH  ACCESS:    5291387  HIT:    4314957  MISS:     976430  HIT %:    81.5468  MISS %:    18.4532   MPKI: 19.5286
AGUS PREFETCH L1 MISS: 0
L2C DATA PREFETCH MPKI: 19.5286
L2C INSTRUCTION PREFETCH MPKI: 0
L2C WRITEBACK ACCESS:     489805  HIT:     487863  MISS:       1942  HIT %:    99.6035  MISS %:   0.396484   MPKI: 0.03884
L2C LOAD TRANSLATION ACCESS:     232255  HIT:     135648  MISS:      96607  HIT %:    58.4048  MISS %:    41.5952   MPKI: 1.93214
L2C PREFETCH  REQUESTED:    5599276  ISSUED:    5373802  USEFUL:     667362  USELESS:     308478
L2C USEFUL LOAD PREFETCHES:     667362 PREFETCH ISSUED TO LOWER LEVEL:     977456  ACCURACY: 68.2754
L2C TIMELY PREFETCHES:     667362 LATE PREFETCHES: 1026 DROPPED PREFETCHES: 0
L2C PREFETCHES SAME FILL-ORIGIN LEVEL: 977456 DIFFERENT FILL-ORIGIN LEVEL: 0
L2C AVERAGE MISS LATENCY: 169.611 cycles
L2C RQ	ACCESS:    1405466	FORWARD:          0	MERGED:          0	TO_CACHE:    1405459
L2C WQ	ACCESS:     489805	FORWARD:         10	MERGED:          0	TO_CACHE:     489805
L2C PQ	ACCESS:    5373802	FORWARD:          0	MERGED:       4563	TO_CACHE:    5369236

L2C Instructions Evicting Data 1298
L2C Translations Evicting Data 90120
L2C Data Evicting Data 1281996
L2C Instructions Evicting Instructions 6
L2C Translations Evicting Instructions 67
L2C Data Evicting Instructions 1282
L2C Instructions Evicting Translations 53
L2C Translations Evicting Translations 6420
L2C Data Evicting Translations 90840
L2C Dense regions hint from L2: 0
PSCL5 TOTAL     ACCESS:     220488  HIT:     220488  MISS:          0  HIT %:        100  MISS %:          0   MPKI: 0
PSCL5 LOAD TRANSLATION ACCESS:     220488  HIT:     220488  MISS:          0  HIT %:        100  MISS %:          0   MPKI: 0
PSCL5 PREFETCH  REQUESTED:          0  ISSUED:          0  USEFUL:          0  USELESS:          0
PSCL5 USEFUL LOAD PREFETCHES:          0 PREFETCH ISSUED TO LOWER LEVEL:          0  ACCURACY: -nan
PSCL5 TIMELY PREFETCHES:          0 LATE PREFETCHES: 0 DROPPED PREFETCHES: 0
PSCL5 PREFETCHES SAME FILL-ORIGIN LEVEL: 0 DIFFERENT FILL-ORIGIN LEVEL: 0

PSCL4 TOTAL     ACCESS:     220488  HIT:     220488  MISS:          0  HIT %:        100  MISS %:          0   MPKI: 0
PSCL4 LOAD TRANSLATION ACCESS:     220488  HIT:     220488  MISS:          0  HIT %:        100  MISS %:          0   MPKI: 0
PSCL4 PREFETCH  REQUESTED:          0  ISSUED:          0  USEFUL:          0  USELESS:          0
PSCL4 USEFUL LOAD PREFETCHES:          0 PREFETCH ISSUED TO LOWER LEVEL:          0  ACCURACY: -nan
PSCL4 TIMELY PREFETCHES:          0 LATE PREFETCHES: 0 DROPPED PREFETCHES: 0
PSCL4 PREFETCHES SAME FILL-ORIGIN LEVEL: 0 DIFFERENT FILL-ORIGIN LEVEL: 0

PSCL3 TOTAL     ACCESS:     220488  HIT:     220488  MISS:          0  HIT %:        100  MISS %:          0   MPKI: 0
PSCL3 LOAD TRANSLATION ACCESS:     220488  HIT:     220488  MISS:          0  HIT %:        100  MISS %:          0   MPKI: 0
PSCL3 PREFETCH  REQUESTED:          0  ISSUED:          0  USEFUL:          0  USELESS:          0
PSCL3 USEFUL LOAD PREFETCHES:          0 PREFETCH ISSUED TO LOWER LEVEL:          0  ACCURACY: -nan
PSCL3 TIMELY PREFETCHES:          0 LATE PREFETCHES: 0 DROPPED PREFETCHES: 0
PSCL3 PREFETCHES SAME FILL-ORIGIN LEVEL: 0 DIFFERENT FILL-ORIGIN LEVEL: 0

PSCL2 TOTAL     ACCESS:     220488  HIT:     208720  MISS:      11768  HIT %:    94.6627  MISS %:    5.33725   MPKI: 0.23536
PSCL2 LOAD TRANSLATION ACCESS:     220488  HIT:     208720  MISS:      11768  HIT %:    94.6627  MISS %:    5.33725   MPKI: 0.23536
PSCL2 PREFETCH  REQUESTED:          0  ISSUED:          0  USEFUL:          0  USELESS:          0
PSCL2 USEFUL LOAD PREFETCHES:          0 PREFETCH ISSUED TO LOWER LEVEL:          0  ACCURACY: -nan
PSCL2 TIMELY PREFETCHES:          0 LATE PREFETCHES: 0 DROPPED PREFETCHES: 0
PSCL2 PREFETCHES SAME FILL-ORIGIN LEVEL: 0 DIFFERENT FILL-ORIGIN LEVEL: 0

LLC TOTAL     ACCESS:    1918618  HIT:     847783  MISS:    1070835  HIT %:    44.1872  MISS %:    55.8128   MPKI: 21.4167
LLC LOAD      ACCESS:     242843  HIT:      69013  MISS:     173830  HIT %:    28.4188  MISS %:    71.5812   MPKI: 3.4766
LLC RFO       ACCESS:     155175  HIT:      24507  MISS:     130668  HIT %:    15.7931  MISS %:    84.2069   MPKI: 2.61336
LLC PREFETCH  ACCESS:     977454  HIT:     246674  MISS:     730780  HIT %:    25.2364  MISS %:    74.7636   MPKI: 14.6156
AGUS PREFETCH L1 MISS: 0
LLC WRITEBACK ACCESS:     446539  HIT:     445364  MISS:       1175  HIT %:    99.7369  MISS %:   0.263135   MPKI: 0.0235
LLC LOAD TRANSLATION ACCESS:      96607  HIT:      62225  MISS:      34382  HIT %:    64.4104  MISS %:    35.5896   MPKI: 0.68764
LLC PREFETCH  REQUESTED:          0  ISSUED:          0  USEFUL:      24139  USELESS:     704683
LLC USEFUL LOAD PREFETCHES:      24139 PREFETCH ISSUED TO LOWER LEVEL:     730780  ACCURACY: 3.30318
LLC TIMELY PREFETCHES:      24139 LATE PREFETCHES: 0 DROPPED PREFETCHES: 0
LLC PREFETCHES SAME FILL-ORIGIN LEVEL: 0 DIFFERENT FILL-ORIGIN LEVEL: 0
LLC AVERAGE MISS LATENCY: 192.197 cycles
LLC RQ	ACCESS:     494626	FORWARD:          0	MERGED:          0	TO_CACHE:     494625
LLC WQ	ACCESS:     446539	FORWARD:          3	MERGED:          0	TO_CACHE:     446539
LLC PQ	ACCESS:     977456	FORWARD:          0	MERGED:          0	TO_CACHE:     977454

LLC Dense regions hint to LLC: 0

RAW hits: 771105
Loads Generated: 14875435
Loads sent to L1D: 14104330
Stores Generated: 8476009
Stores sent to L1D: 8476021
Major fault: 0 Minor fault: 33441
Allocated PAGES: 33441
Prefetcher final stats
Training Unit Size: 397
Addr table size: 389441 389458


Triggers: 1991823
Structural address exists: 1555133 78.0759
No Prediction: 436690 21.9241
Prefetches issued: 8719668 437.773
Useful Prefetches: 667362
Useless Prefetches: 308478
Stream end: 409118
No translation: 406840332
%Stream divergence: 100320 5.03659
Stream divergence -- new stream: 0

DRAM Statistics
 CHANNEL 0
 RQ ROW_BUFFER_HIT:      78904  ROW_BUFFER_MISS:     990736
 DBUS_CONGESTED:        352
 WQ ROW_BUFFER_HIT:      56273  ROW_BUFFER_MISS:     315552  FULL:          0

 AVG_CONGESTED_CYCLE: 5
 All warmup complete: 2
Channel 0 Bank busy for read cycles: 0
Channel 0 Bank busy for write cycles: 0
Channel 0
Rank 0
0banks busy for read cycles: 55535185
0banks busy for write cycles: 97896
1banks busy for read cycles: 33981550
1banks busy for write cycles: 12415159
2banks busy for read cycles: 20135121
2banks busy for write cycles: 6935438
3banks busy for read cycles: 10902512
3banks busy for write cycles: 4353777
4banks busy for read cycles: 5024385
4banks busy for write cycles: 2784187
5banks busy for read cycles: 2272663
5banks busy for write cycles: 1864477
6banks busy for read cycles: 1316841
6banks busy for write cycles: 1184385
7banks busy for read cycles: 624606
7banks busy for write cycles: 714567
8banks busy for read cycles: 233355
8banks busy for write cycles: 346566

CPU 0 Branch Prediction Accuracy: 94.0755% MPKI: 14.2353 Average ROB Occupancy at Mispredict: 25.2267
Branch types
NOT_BRANCH: 37985796 75.9716%
BRANCH_DIRECT_JUMP: 964405 1.92881%
BRANCH_INDIRECT: 140341 0.280682%
BRANCH_CONDITIONAL: 7911981 15.824%
BRANCH_DIRECT_CALL: 1294152 2.5883%
BRANCH_INDIRECT_CALL: 204449 0.408898%
BRANCH_RETURN: 1498606 2.99721%
BRANCH_OTHER: 0 0%

DRAM PAGES: 1048576
Allocated PAGES: 33441
