
*** ChampSim Multicore Out-of-Order Simulator ***

Warmup Instructions: 50000000
Simulation Instructions: 50000000
Number of CPUs: 1
LLC sets: 2048
LLC ways: 16
Off-chip DRAM Size: 4096 MB Channels: 1 Width: 64-bit Data Rate: 6400 MT/s
CPU 0 runs traces/SPEC-CPU2017/471.omnetpp-188B.champsimtrace.xz
.xz
CPU 0 Bimodal branch predictor
BTB has LRU replacement policy
ITLB has LRU replacement policy
DTLB has LRU replacement policy
STLB has LRU replacement policy
L1I has LRU replacement policy
L1D has LRU replacement policy
Ideal ISB Prefetching
L2C has LRU replacement policy
LLC has LRU replacement policy
Heartbeat CPU 0 instructions: 10000001 cycles: 3266734 heartbeat IPC: 3.06116 cumulative IPC: 3.06116 (Simulation time: 0 hr 0 min 41 sec) 
Heartbeat CPU 0 instructions: 20000000 cycles: 6491664 heartbeat IPC: 3.10084 cumulative IPC: 3.08087 (Simulation time: 0 hr 1 min 21 sec) 
Heartbeat CPU 0 instructions: 30000000 cycles: 9729496 heartbeat IPC: 3.08849 cumulative IPC: 3.08341 (Simulation time: 0 hr 2 min 3 sec) 
Heartbeat CPU 0 instructions: 40000000 cycles: 12960049 heartbeat IPC: 3.09545 cumulative IPC: 3.08641 (Simulation time: 0 hr 2 min 46 sec) 
Heartbeat CPU 0 instructions: 50000003 cycles: 16178235 heartbeat IPC: 3.10734 cumulative IPC: 3.09057 (Simulation time: 0 hr 3 min 29 sec) 

Warmup complete CPU 0 instructions: 50000003 cycles: 16178235 (Simulation time: 0 hr 3 min 29 sec) 

Heartbeat CPU 0 instructions: 60000000 cycles: 51558662 heartbeat IPC: 0.282642 cumulative IPC: 0.282642 (Simulation time: 0 hr 4 min 26 sec) 
Heartbeat CPU 0 instructions: 70000001 cycles: 85158124 heartbeat IPC: 0.297624 cumulative IPC: 0.28994 (Simulation time: 0 hr 5 min 23 sec) 
Heartbeat CPU 0 instructions: 80000000 cycles: 119025352 heartbeat IPC: 0.295271 cumulative IPC: 0.291695 (Simulation time: 0 hr 6 min 22 sec) 
Heartbeat CPU 0 instructions: 90000003 cycles: 152520220 heartbeat IPC: 0.298553 cumulative IPC: 0.29338 (Simulation time: 0 hr 7 min 20 sec) 
Heartbeat CPU 0 instructions: 100000000 cycles: 186673687 heartbeat IPC: 0.292796 cumulative IPC: 0.293263 (Simulation time: 0 hr 8 min 19 sec) 
Finished CPU 0 instructions: 50000000 cycles: 170495461 cumulative IPC: 0.293263 (Simulation time: 0 hr 8 min 19 sec) 

ChampSim completed all CPUs

Region of Interest Statistics

CPU 0 cumulative IPC: 0.293263 instructions: 50000000 cycles: 170495461
ITLB TOTAL     ACCESS:    8725209  HIT:    8708006  MISS:      17203  HIT %:    99.8028  MISS %:   0.197164   MPKI: 0.34406
ITLB LOAD TRANSLATION ACCESS:    8725209  HIT:    8708006  MISS:      17203  HIT %:    99.8028  MISS %:   0.197164   MPKI: 0.34406
ITLB PREFETCH  REQUESTED:          0  ISSUED:          0  USEFUL:          0  USELESS:          0
ITLB USEFUL LOAD PREFETCHES:          0 PREFETCH ISSUED TO LOWER LEVEL:          0  ACCURACY: -nan
ITLB TIMELY PREFETCHES:          0 LATE PREFETCHES: 0 DROPPED PREFETCHES: 0
ITLB PREFETCHES SAME FILL-ORIGIN LEVEL: 0 DIFFERENT FILL-ORIGIN LEVEL: 0
ITLB AVERAGE MISS LATENCY: 11.2809 cycles
ITLB RQ	ACCESS:    9817469	FORWARD:          0	MERGED:    1084646	TO_CACHE:    8732823

DTLB TOTAL     ACCESS:   14685226  HIT:   13727864  MISS:     957362  HIT %:    93.4808  MISS %:    6.51922   MPKI: 19.1472
DTLB LOAD TRANSLATION ACCESS:   14685226  HIT:   13727864  MISS:     957362  HIT %:    93.4808  MISS %:    6.51922   MPKI: 19.1472
DTLB PREFETCH  REQUESTED:          0  ISSUED:          0  USEFUL:          0  USELESS:          0
DTLB USEFUL LOAD PREFETCHES:          0 PREFETCH ISSUED TO LOWER LEVEL:          0  ACCURACY: -nan
DTLB TIMELY PREFETCHES:          0 LATE PREFETCHES: 0 DROPPED PREFETCHES: 0
DTLB PREFETCHES SAME FILL-ORIGIN LEVEL: 0 DIFFERENT FILL-ORIGIN LEVEL: 0
DTLB AVERAGE MISS LATENCY: 25.7239 cycles
DTLB RQ	ACCESS:   17866492	FORWARD:          0	MERGED:    3132771	TO_CACHE:   14733721

STLB TOTAL     ACCESS:     974565  HIT:     754077  MISS:     220488  HIT %:    77.3758  MISS %:    22.6242   MPKI: 4.40976
STLB LOAD TRANSLATION ACCESS:     974565  HIT:     754077  MISS:     220488  HIT %:    77.3758  MISS %:    22.6242   MPKI: 4.40976
STLB PREFETCH  REQUESTED:          0  ISSUED:          0  USEFUL:          0  USELESS:          0
STLB USEFUL LOAD PREFETCHES:          0 PREFETCH ISSUED TO LOWER LEVEL:          0  ACCURACY: -nan
STLB TIMELY PREFETCHES:          0 LATE PREFETCHES: 0 DROPPED PREFETCHES: 0
STLB PREFETCHES SAME FILL-ORIGIN LEVEL: 0 DIFFERENT FILL-ORIGIN LEVEL: 0
STLB AVERAGE MISS LATENCY: 72.1991 cycles
STLB RQ	ACCESS:     974565	FORWARD:          0	MERGED:          0	TO_CACHE:     974565

STLB Hit, L1D data hit: 0
STLB Hit, L2C data hit: 0
STLB Hit, LLC data hit: 0
STLB Hit, LLC data miss: 0
STLB STLB hints to L2: 0
L1D TOTAL     ACCESS:   17340897  HIT:   16169228  MISS:    1171669  HIT %:    93.2433  MISS %:    6.75668   MPKI: 23.4334
L1D LOAD      ACCESS:    9488448  HIT:    8490416  MISS:     998032  HIT %:    89.4816  MISS %:    10.5184   MPKI: 19.9606
L1D RFO       ACCESS:    7852449  HIT:    7678812  MISS:     173637  HIT %:    97.7888  MISS %:    2.21125   MPKI: 3.47274
L1D PREFETCH  REQUESTED:          0  ISSUED:          0  USEFUL:          0  USELESS:          0
L1D USEFUL LOAD PREFETCHES:          0 PREFETCH ISSUED TO LOWER LEVEL:          0  ACCURACY: -nan
L1D TIMELY PREFETCHES:          0 LATE PREFETCHES: 0 DROPPED PREFETCHES: 0
L1D PREFETCHES SAME FILL-ORIGIN LEVEL: 0 DIFFERENT FILL-ORIGIN LEVEL: 0
L1D AVERAGE MISS LATENCY: 82.6489 cycles
L1D RQ	ACCESS:   14089843	FORWARD:          0	MERGED:    4066500	TO_CACHE:    9570636
L1D WQ	ACCESS:    8476021	FORWARD:     452707	MERGED:     180165	TO_CACHE:    8295856

L1D UNIQUE REGIONS ACCESSED: 0
L1D REGIONS CONFLICTS: 0
L1D Cross Page Prefetch Requests: 0
L1D Same Page Prefetch Requests: 0
L1D ROI Sum of L1D PQ occupancy: 0
L1D PREFETCHES PUSHED FROM L2C: 0
L1I TOTAL     ACCESS:    9817168  HIT:    9815627  MISS:       1541  HIT %:    99.9843  MISS %:   0.015697   MPKI: 0.03082
L1I LOAD      ACCESS:    9817168  HIT:    9815627  MISS:       1541  HIT %:    99.9843  MISS %:   0.015697   MPKI: 0.03082
L1I PREFETCH  REQUESTED:          0  ISSUED:          0  USEFUL:          0  USELESS:          0
L1I USEFUL LOAD PREFETCHES:          0 PREFETCH ISSUED TO LOWER LEVEL:          0  ACCURACY: -nan
L1I TIMELY PREFETCHES:          0 LATE PREFETCHES: 0 DROPPED PREFETCHES: 0
L1I PREFETCHES SAME FILL-ORIGIN LEVEL: 0 DIFFERENT FILL-ORIGIN LEVEL: 0
L1I AVERAGE MISS LATENCY: 159.152 cycles
L1I RQ	ACCESS:   14782135	FORWARD:          0	MERGED:    4964666	TO_CACHE:    9817469

BTB TOTAL     ACCESS:   10008119  HIT:    9487971  MISS:     520148  HIT %:    94.8027  MISS %:    5.19726   MPKI: 10.403
BTB BRANCH_DIRECT_JUMP	ACCESS:     964405  HIT:     964243  MISS:        162
BTB BRANCH_INDIRECT	ACCESS:     140341  HIT:     116325  MISS:      24016
BTB BRANCH_CONDITIONAL	ACCESS:    5906166  HIT:    5905777  MISS:        389
BTB BRANCH_DIRECT_CALL	ACCESS:    1294152  HIT:    1293861  MISS:        291
BTB BRANCH_INDIRECT_CALL	ACCESS:     204449  HIT:     203146  MISS:       1303
BTB BRANCH_RETURN	ACCESS:    1498606  HIT:    1004619  MISS:     493987
BTB BRANCH_OTHER ACCESS:          0  HIT:          0  MISS:          0

L2C TOTAL     ACCESS:    2858331  HIT:    1443629  MISS:    1414702  HIT %:     50.506  MISS %:     49.494   MPKI: 28.294
L2C LOAD      ACCESS:     999564  HIT:     668380  MISS:     331184  HIT %:    66.8672  MISS %:    33.1328   MPKI: 6.62368
L2C DATA LOAD MPKI: 6.59682
L2C INSTRUCTION LOAD MPKI: 0.02686
L2C RFO       ACCESS:     173637  HIT:      15780  MISS:     157857  HIT %:    9.08792  MISS %:    90.9121   MPKI: 3.15714
L2C PREFETCH  ACCESS:     963215  HIT:     132936  MISS:     830279  HIT %:    13.8013  MISS %:    86.1987   MPKI: 16.6056
AGUS PREFETCH L1 MISS: 0
L2C DATA PREFETCH MPKI: 16.6056
L2C INSTRUCTION PREFETCH MPKI: 0
L2C WRITEBACK ACCESS:     489660  HIT:     488017  MISS:       1643  HIT %:    99.6645  MISS %:   0.335539   MPKI: 0.03286
L2C LOAD TRANSLATION ACCESS:     232255  HIT:     138516  MISS:      93739  HIT %:    59.6396  MISS %:    40.3604   MPKI: 1.87478
L2C PREFETCH  REQUESTED:     975020  ISSUED:     972692  USEFUL:     574473  USELESS:     255475
L2C USEFUL LOAD PREFETCHES:     574473 PREFETCH ISSUED TO LOWER LEVEL:     832181  ACCURACY: 69.0322
L2C TIMELY PREFETCHES:     574473 LATE PREFETCHES: 1902 DROPPED PREFETCHES: 0
L2C PREFETCHES SAME FILL-ORIGIN LEVEL: 832181 DIFFERENT FILL-ORIGIN LEVEL: 0
L2C AVERAGE MISS LATENCY: 186.438 cycles
L2C RQ	ACCESS:    1405465	FORWARD:          0	MERGED:          0	TO_CACHE:    1405456
L2C WQ	ACCESS:     489660	FORWARD:         10	MERGED:          0	TO_CACHE:     489660
L2C PQ	ACCESS:     972692	FORWARD:          0	MERGED:        789	TO_CACHE:     971902

L2C Instructions Evicting Data 1267
L2C Translations Evicting Data 87399
L2C Data Evicting Data 1228592
L2C Instructions Evicting Instructions 7
L2C Translations Evicting Instructions 90
L2C Data Evicting Instructions 1245
L2C Instructions Evicting Translations 69
L2C Translations Evicting Translations 6250
L2C Data Evicting Translations 88140
L2C Dense regions hint from L2: 0
PSCL5 TOTAL     ACCESS:     220488  HIT:     220488  MISS:          0  HIT %:        100  MISS %:          0   MPKI: 0
PSCL5 LOAD TRANSLATION ACCESS:     220488  HIT:     220488  MISS:          0  HIT %:        100  MISS %:          0   MPKI: 0
PSCL5 PREFETCH  REQUESTED:          0  ISSUED:          0  USEFUL:          0  USELESS:          0
PSCL5 USEFUL LOAD PREFETCHES:          0 PREFETCH ISSUED TO LOWER LEVEL:          0  ACCURACY: -nan
PSCL5 TIMELY PREFETCHES:          0 LATE PREFETCHES: 0 DROPPED PREFETCHES: 0
PSCL5 PREFETCHES SAME FILL-ORIGIN LEVEL: 0 DIFFERENT FILL-ORIGIN LEVEL: 0

PSCL4 TOTAL     ACCESS:     220488  HIT:     220488  MISS:          0  HIT %:        100  MISS %:          0   MPKI: 0
PSCL4 LOAD TRANSLATION ACCESS:     220488  HIT:     220488  MISS:          0  HIT %:        100  MISS %:          0   MPKI: 0
PSCL4 PREFETCH  REQUESTED:          0  ISSUED:          0  USEFUL:          0  USELESS:          0
PSCL4 USEFUL LOAD PREFETCHES:          0 PREFETCH ISSUED TO LOWER LEVEL:          0  ACCURACY: -nan
PSCL4 TIMELY PREFETCHES:          0 LATE PREFETCHES: 0 DROPPED PREFETCHES: 0
PSCL4 PREFETCHES SAME FILL-ORIGIN LEVEL: 0 DIFFERENT FILL-ORIGIN LEVEL: 0

PSCL3 TOTAL     ACCESS:     220488  HIT:     220488  MISS:          0  HIT %:        100  MISS %:          0   MPKI: 0
PSCL3 LOAD TRANSLATION ACCESS:     220488  HIT:     220488  MISS:          0  HIT %:        100  MISS %:          0   MPKI: 0
PSCL3 PREFETCH  REQUESTED:          0  ISSUED:          0  USEFUL:          0  USELESS:          0
PSCL3 USEFUL LOAD PREFETCHES:          0 PREFETCH ISSUED TO LOWER LEVEL:          0  ACCURACY: -nan
PSCL3 TIMELY PREFETCHES:          0 LATE PREFETCHES: 0 DROPPED PREFETCHES: 0
PSCL3 PREFETCHES SAME FILL-ORIGIN LEVEL: 0 DIFFERENT FILL-ORIGIN LEVEL: 0

PSCL2 TOTAL     ACCESS:     220488  HIT:     208720  MISS:      11768  HIT %:    94.6627  MISS %:    5.33725   MPKI: 0.23536
PSCL2 LOAD TRANSLATION ACCESS:     220488  HIT:     208720  MISS:      11768  HIT %:    94.6627  MISS %:    5.33725   MPKI: 0.23536
PSCL2 PREFETCH  REQUESTED:          0  ISSUED:          0  USEFUL:          0  USELESS:          0
PSCL2 USEFUL LOAD PREFETCHES:          0 PREFETCH ISSUED TO LOWER LEVEL:          0  ACCURACY: -nan
PSCL2 TIMELY PREFETCHES:          0 LATE PREFETCHES: 0 DROPPED PREFETCHES: 0
PSCL2 PREFETCHES SAME FILL-ORIGIN LEVEL: 0 DIFFERENT FILL-ORIGIN LEVEL: 0

LLC TOTAL     ACCESS:    1858176  HIT:     812692  MISS:    1045484  HIT %:     43.736  MISS %:     56.264   MPKI: 20.9097
LLC LOAD      ACCESS:     329291  HIT:      87190  MISS:     242101  HIT %:    26.4781  MISS %:    73.5219   MPKI: 4.84202
LLC RFO       ACCESS:     157846  HIT:      24391  MISS:     133455  HIT %:    15.4524  MISS %:    84.5476   MPKI: 2.6691
LLC PREFETCH  ACCESS:     832181  HIT:     196525  MISS:     635656  HIT %:    23.6157  MISS %:    76.3843   MPKI: 12.7131
AGUS PREFETCH L1 MISS: 0
LLC WRITEBACK ACCESS:     445119  HIT:     444380  MISS:        739  HIT %:     99.834  MISS %:   0.166023   MPKI: 0.01478
LLC LOAD TRANSLATION ACCESS:      93739  HIT:      60206  MISS:      33533  HIT %:    64.2273  MISS %:    35.7727   MPKI: 0.67066
LLC PREFETCH  REQUESTED:          0  ISSUED:          0  USEFUL:      29028  USELESS:     605677
LLC USEFUL LOAD PREFETCHES:      29028 PREFETCH ISSUED TO LOWER LEVEL:     635656  ACCURACY: 4.56662
LLC TIMELY PREFETCHES:      29028 LATE PREFETCHES: 0 DROPPED PREFETCHES: 0
LLC PREFETCHES SAME FILL-ORIGIN LEVEL: 0 DIFFERENT FILL-ORIGIN LEVEL: 0
LLC AVERAGE MISS LATENCY: 211.696 cycles
LLC RQ	ACCESS:     580878	FORWARD:          0	MERGED:          0	TO_CACHE:     580876
LLC WQ	ACCESS:     445119	FORWARD:          2	MERGED:          0	TO_CACHE:     445119
LLC PQ	ACCESS:     832181	FORWARD:          0	MERGED:          0	TO_CACHE:     832181

LLC Dense regions hint to LLC: 0

RAW hits: 785590
Loads Generated: 14875433
Loads sent to L1D: 14089843
Stores Generated: 8476008
Stores sent to L1D: 8476021
Major fault: 0 Minor fault: 33441
Allocated PAGES: 33441
Prefetcher final stats
Training Unit Size: 396
Addr table size: 385393 385412


Triggers: 812377
Structural address exists: 388193 47.7848
No Prediction: 424184 52.2152
Prefetches issued: 1774895 218.482
Useful Prefetches: 574473
Useless Prefetches: 255475
Stream end: 200465
No translation: 202600656
%Stream divergence: 141560 17.4254
Stream divergence -- new stream: 0

DRAM Statistics
 CHANNEL 0
 RQ ROW_BUFFER_HIT:     132550  ROW_BUFFER_MISS:     912182
 DBUS_CONGESTED:        101
 WQ ROW_BUFFER_HIT:      45867  ROW_BUFFER_MISS:     324464  FULL:          0

 AVG_CONGESTED_CYCLE: 5
 All warmup complete: 2
Channel 0 Bank busy for read cycles: 0
Channel 0 Bank busy for write cycles: 0
Channel 0
Rank 0
0banks busy for read cycles: 77436235
0banks busy for write cycles: 107101
1banks busy for read cycles: 31357600
1banks busy for write cycles: 13320424
2banks busy for read cycles: 13102829
2banks busy for write cycles: 6439218
3banks busy for read cycles: 6263552
3banks busy for write cycles: 3811263
4banks busy for read cycles: 3869156
4banks busy for write cycles: 2517076
5banks busy for read cycles: 3828831
5banks busy for write cycles: 1607958
6banks busy for read cycles: 3021503
6banks busy for write cycles: 1008326
7banks busy for read cycles: 1417906
7banks busy for write cycles: 561775
8banks busy for read cycles: 553588
8banks busy for write cycles: 271121

CPU 0 Branch Prediction Accuracy: 94.0755% MPKI: 14.2353 Average ROB Occupancy at Mispredict: 25.4772
Branch types
NOT_BRANCH: 37985796 75.9716%
BRANCH_DIRECT_JUMP: 964405 1.92881%
BRANCH_INDIRECT: 140341 0.280682%
BRANCH_CONDITIONAL: 7911981 15.824%
BRANCH_DIRECT_CALL: 1294152 2.5883%
BRANCH_INDIRECT_CALL: 204449 0.408898%
BRANCH_RETURN: 1498606 2.99721%
BRANCH_OTHER: 0 0%

DRAM PAGES: 1048576
Allocated PAGES: 33441
