
*** ChampSim Multicore Out-of-Order Simulator ***

Warmup Instructions: 50000000
Simulation Instructions: 50000000
Number of CPUs: 1
LLC sets: 2048
LLC ways: 16
Off-chip DRAM Size: 4096 MB Channels: 1 Width: 64-bit Data Rate: 6400 MT/s
CPU 0 runs traces/SPEC-CPU2017/482.sphinx3-234B.champsimtrace.xz
.xz
CPU 0 Bimodal branch predictor
BTB has LRU replacement policy
ITLB has LRU replacement policy
DTLB has LRU replacement policy
STLB has LRU replacement policy
L1I has LRU replacement policy
L1D has LRU replacement policy
Ideal ISB Prefetching
L2C has LRU replacement policy
LLC has LRU replacement policy
Heartbeat CPU 0 instructions: 10000000 cycles: 3095494 heartbeat IPC: 3.2305 cumulative IPC: 3.2305 (Simulation time: 0 hr 0 min 27 sec) 
Heartbeat CPU 0 instructions: 20000000 cycles: 6190259 heartbeat IPC: 3.23126 cumulative IPC: 3.23088 (Simulation time: 0 hr 0 min 55 sec) 
Heartbeat CPU 0 instructions: 30000001 cycles: 9282217 heartbeat IPC: 3.2342 cumulative IPC: 3.23199 (Simulation time: 0 hr 1 min 23 sec) 
Heartbeat CPU 0 instructions: 40000000 cycles: 12412414 heartbeat IPC: 3.19469 cumulative IPC: 3.22258 (Simulation time: 0 hr 1 min 51 sec) 
Heartbeat CPU 0 instructions: 50000000 cycles: 15460893 heartbeat IPC: 3.28032 cumulative IPC: 3.23397 (Simulation time: 0 hr 2 min 20 sec) 

Warmup complete CPU 0 instructions: 50000004 cycles: 15460894 (Simulation time: 0 hr 2 min 20 sec) 

Heartbeat CPU 0 instructions: 60000000 cycles: 27364207 heartbeat IPC: 0.840102 cumulative IPC: 0.840102 (Simulation time: 0 hr 3 min 2 sec) 
Heartbeat CPU 0 instructions: 70000000 cycles: 38562074 heartbeat IPC: 0.893027 cumulative IPC: 0.865756 (Simulation time: 0 hr 3 min 43 sec) 
Heartbeat CPU 0 instructions: 80000000 cycles: 49640306 heartbeat IPC: 0.902671 cumulative IPC: 0.877721 (Simulation time: 0 hr 4 min 25 sec) 
Heartbeat CPU 0 instructions: 90000001 cycles: 60913308 heartbeat IPC: 0.887075 cumulative IPC: 0.880041 (Simulation time: 0 hr 5 min 6 sec) 
Heartbeat CPU 0 instructions: 100000000 cycles: 72958930 heartbeat IPC: 0.830177 cumulative IPC: 0.869595 (Simulation time: 0 hr 5 min 50 sec) 
Finished CPU 0 instructions: 50000000 cycles: 57498068 cumulative IPC: 0.869594 (Simulation time: 0 hr 5 min 50 sec) 

ChampSim completed all CPUs

Region of Interest Statistics

CPU 0 cumulative IPC: 0.869594 instructions: 50000000 cycles: 57498068
ITLB TOTAL     ACCESS:    9668937  HIT:    9668937  MISS:          0  HIT %:        100  MISS %:          0   MPKI: 0
ITLB LOAD TRANSLATION ACCESS:    9668937  HIT:    9668937  MISS:          0  HIT %:        100  MISS %:          0   MPKI: 0
ITLB PREFETCH  REQUESTED:          0  ISSUED:          0  USEFUL:          0  USELESS:          0
ITLB USEFUL LOAD PREFETCHES:          0 PREFETCH ISSUED TO LOWER LEVEL:          0  ACCURACY: -nan
ITLB TIMELY PREFETCHES:          0 LATE PREFETCHES: 0 DROPPED PREFETCHES: 0
ITLB PREFETCHES SAME FILL-ORIGIN LEVEL: 0 DIFFERENT FILL-ORIGIN LEVEL: 0
ITLB AVERAGE MISS LATENCY: -nan cycles
ITLB RQ	ACCESS:   10471775	FORWARD:          0	MERGED:     802838	TO_CACHE:    9668937

DTLB TOTAL     ACCESS:    9164608  HIT:    9102640  MISS:      61968  HIT %:    99.3238  MISS %:   0.676166   MPKI: 1.23936
DTLB LOAD TRANSLATION ACCESS:    9164608  HIT:    9102640  MISS:      61968  HIT %:    99.3238  MISS %:   0.676166   MPKI: 1.23936
DTLB PREFETCH  REQUESTED:          0  ISSUED:          0  USEFUL:          0  USELESS:          0
DTLB USEFUL LOAD PREFETCHES:          0 PREFETCH ISSUED TO LOWER LEVEL:          0  ACCURACY: -nan
DTLB TIMELY PREFETCHES:          0 LATE PREFETCHES: 0 DROPPED PREFETCHES: 0
DTLB PREFETCHES SAME FILL-ORIGIN LEVEL: 0 DIFFERENT FILL-ORIGIN LEVEL: 0
DTLB AVERAGE MISS LATENCY: 38.2998 cycles
DTLB RQ	ACCESS:   10148944	FORWARD:          0	MERGED:     973215	TO_CACHE:    9175729

STLB TOTAL     ACCESS:      61968  HIT:      43027  MISS:      18941  HIT %:    69.4342  MISS %:    30.5658   MPKI: 0.37882
STLB LOAD TRANSLATION ACCESS:      61968  HIT:      43027  MISS:      18941  HIT %:    69.4342  MISS %:    30.5658   MPKI: 0.37882
STLB PREFETCH  REQUESTED:          0  ISSUED:          0  USEFUL:          0  USELESS:          0
STLB USEFUL LOAD PREFETCHES:          0 PREFETCH ISSUED TO LOWER LEVEL:          0  ACCURACY: -nan
STLB TIMELY PREFETCHES:          0 LATE PREFETCHES: 0 DROPPED PREFETCHES: 0
STLB PREFETCHES SAME FILL-ORIGIN LEVEL: 0 DIFFERENT FILL-ORIGIN LEVEL: 0
STLB AVERAGE MISS LATENCY: 95.7029 cycles
STLB RQ	ACCESS:      61968	FORWARD:          0	MERGED:          0	TO_CACHE:      61968

STLB Hit, L1D data hit: 0
STLB Hit, L2C data hit: 0
STLB Hit, LLC data hit: 0
STLB Hit, LLC data miss: 0
STLB STLB hints to L2: 0
L1D TOTAL     ACCESS:    9698061  HIT:    8987224  MISS:     710837  HIT %:    92.6703  MISS %:    7.32968   MPKI: 14.2167
L1D LOAD      ACCESS:    9013201  HIT:    8336444  MISS:     676757  HIT %:    92.4915  MISS %:    7.50851   MPKI: 13.5351
L1D RFO       ACCESS:     684860  HIT:     650780  MISS:      34080  HIT %:    95.0238  MISS %:     4.9762   MPKI: 0.6816
L1D PREFETCH  REQUESTED:          0  ISSUED:          0  USEFUL:          0  USELESS:          0
L1D USEFUL LOAD PREFETCHES:          0 PREFETCH ISSUED TO LOWER LEVEL:          0  ACCURACY: -nan
L1D TIMELY PREFETCHES:          0 LATE PREFETCHES: 0 DROPPED PREFETCHES: 0
L1D PREFETCHES SAME FILL-ORIGIN LEVEL: 0 DIFFERENT FILL-ORIGIN LEVEL: 0
L1D AVERAGE MISS LATENCY: 29.5232 cycles
L1D RQ	ACCESS:   12889038	FORWARD:          0	MERGED:    3585956	TO_CACHE:    9292068
L1D WQ	ACCESS:     858601	FORWARD:      11014	MERGED:       1725	TO_CACHE:     856876

L1D UNIQUE REGIONS ACCESSED: 0
L1D REGIONS CONFLICTS: 0
L1D Cross Page Prefetch Requests: 0
L1D Same Page Prefetch Requests: 0
L1D ROI Sum of L1D PQ occupancy: 0
L1D PREFETCHES PUSHED FROM L2C: 0
L1I TOTAL     ACCESS:   10471774  HIT:   10471774  MISS:          0  HIT %:        100  MISS %:          0   MPKI: 0
L1I LOAD      ACCESS:   10471774  HIT:   10471774  MISS:          0  HIT %:        100  MISS %:          0   MPKI: 0
L1I PREFETCH  REQUESTED:          0  ISSUED:          0  USEFUL:          0  USELESS:          0
L1I USEFUL LOAD PREFETCHES:          0 PREFETCH ISSUED TO LOWER LEVEL:          0  ACCURACY: -nan
L1I TIMELY PREFETCHES:          0 LATE PREFETCHES: 0 DROPPED PREFETCHES: 0
L1I PREFETCHES SAME FILL-ORIGIN LEVEL: 0 DIFFERENT FILL-ORIGIN LEVEL: 0
L1I AVERAGE MISS LATENCY: -nan cycles
L1I RQ	ACCESS:   12609595	FORWARD:          0	MERGED:    2137820	TO_CACHE:   10471775

BTB TOTAL     ACCESS:    4309220  HIT:    4298927  MISS:      10293  HIT %:    99.7611  MISS %:    0.23886   MPKI: 0.20586
BTB BRANCH_DIRECT_JUMP	ACCESS:      86243  HIT:      86192  MISS:         51
BTB BRANCH_INDIRECT	ACCESS:          0  HIT:          0  MISS:          0
BTB BRANCH_CONDITIONAL	ACCESS:    4052259  HIT:    4052080  MISS:        179
BTB BRANCH_DIRECT_CALL	ACCESS:      85360  HIT:      85282  MISS:         78
BTB BRANCH_INDIRECT_CALL	ACCESS:          0  HIT:          0  MISS:          0
BTB BRANCH_RETURN	ACCESS:      85358  HIT:      75373  MISS:       9985
BTB BRANCH_OTHER ACCESS:          0  HIT:          0  MISS:          0

L2C TOTAL     ACCESS:    5163531  HIT:    4431580  MISS:     731951  HIT %:    85.8246  MISS %:    14.1754   MPKI: 14.639
L2C LOAD      ACCESS:     676757  HIT:     636472  MISS:      40285  HIT %:    94.0473  MISS %:    5.95265   MPKI: 0.8057
L2C DATA LOAD MPKI: 0.8057
L2C INSTRUCTION LOAD MPKI: 0
L2C RFO       ACCESS:      34079  HIT:       2432  MISS:      31647  HIT %:    7.13636  MISS %:    92.8636   MPKI: 0.63294
L2C PREFETCH  ACCESS:    4391899  HIT:    3736451  MISS:     655448  HIT %:     85.076  MISS %:     14.924   MPKI: 13.109
AGUS PREFETCH L1 MISS: 0
L2C DATA PREFETCH MPKI: 13.109
L2C INSTRUCTION PREFETCH MPKI: 0
L2C WRITEBACK ACCESS:      41855  HIT:      41728  MISS:        127  HIT %:    99.6966  MISS %:   0.303429   MPKI: 0.00254
L2C LOAD TRANSLATION ACCESS:      18941  HIT:      14497  MISS:       4444  HIT %:    76.5377  MISS %:    23.4623   MPKI: 0.08888
L2C PREFETCH  REQUESTED:    4751700  ISSUED:    4586365  USEFUL:     531333  USELESS:     125081
L2C USEFUL LOAD PREFETCHES:     531333 PREFETCH ISSUED TO LOWER LEVEL:     656290  ACCURACY: 80.9601
L2C TIMELY PREFETCHES:     531333 LATE PREFETCHES: 840 DROPPED PREFETCHES: 0
L2C PREFETCHES SAME FILL-ORIGIN LEVEL: 656290 DIFFERENT FILL-ORIGIN LEVEL: 0
L2C AVERAGE MISS LATENCY: 176.794 cycles
L2C RQ	ACCESS:     729778	FORWARD:          0	MERGED:          0	TO_CACHE:     729777
L2C WQ	ACCESS:      41855	FORWARD:          1	MERGED:          0	TO_CACHE:      41855
L2C PQ	ACCESS:    4586365	FORWARD:          0	MERGED:      36908	TO_CACHE:    4549457

L2C Instructions Evicting Data 0
L2C Translations Evicting Data 4436
L2C Data Evicting Data 722941
L2C Instructions Evicting Instructions 0
L2C Translations Evicting Instructions 0
L2C Data Evicting Instructions 0
L2C Instructions Evicting Translations 0
L2C Translations Evicting Translations 8
L2C Data Evicting Translations 4439
L2C Dense regions hint from L2: 0
PSCL5 TOTAL     ACCESS:      18941  HIT:      18941  MISS:          0  HIT %:        100  MISS %:          0   MPKI: 0
PSCL5 LOAD TRANSLATION ACCESS:      18941  HIT:      18941  MISS:          0  HIT %:        100  MISS %:          0   MPKI: 0
PSCL5 PREFETCH  REQUESTED:          0  ISSUED:          0  USEFUL:          0  USELESS:          0
PSCL5 USEFUL LOAD PREFETCHES:          0 PREFETCH ISSUED TO LOWER LEVEL:          0  ACCURACY: -nan
PSCL5 TIMELY PREFETCHES:          0 LATE PREFETCHES: 0 DROPPED PREFETCHES: 0
PSCL5 PREFETCHES SAME FILL-ORIGIN LEVEL: 0 DIFFERENT FILL-ORIGIN LEVEL: 0

PSCL4 TOTAL     ACCESS:      18941  HIT:      18941  MISS:          0  HIT %:        100  MISS %:          0   MPKI: 0
PSCL4 LOAD TRANSLATION ACCESS:      18941  HIT:      18941  MISS:          0  HIT %:        100  MISS %:          0   MPKI: 0
PSCL4 PREFETCH  REQUESTED:          0  ISSUED:          0  USEFUL:          0  USELESS:          0
PSCL4 USEFUL LOAD PREFETCHES:          0 PREFETCH ISSUED TO LOWER LEVEL:          0  ACCURACY: -nan
PSCL4 TIMELY PREFETCHES:          0 LATE PREFETCHES: 0 DROPPED PREFETCHES: 0
PSCL4 PREFETCHES SAME FILL-ORIGIN LEVEL: 0 DIFFERENT FILL-ORIGIN LEVEL: 0

PSCL3 TOTAL     ACCESS:      18941  HIT:      18941  MISS:          0  HIT %:        100  MISS %:          0   MPKI: 0
PSCL3 LOAD TRANSLATION ACCESS:      18941  HIT:      18941  MISS:          0  HIT %:        100  MISS %:          0   MPKI: 0
PSCL3 PREFETCH  REQUESTED:          0  ISSUED:          0  USEFUL:          0  USELESS:          0
PSCL3 USEFUL LOAD PREFETCHES:          0 PREFETCH ISSUED TO LOWER LEVEL:          0  ACCURACY: -nan
PSCL3 TIMELY PREFETCHES:          0 LATE PREFETCHES: 0 DROPPED PREFETCHES: 0
PSCL3 PREFETCHES SAME FILL-ORIGIN LEVEL: 0 DIFFERENT FILL-ORIGIN LEVEL: 0

PSCL2 TOTAL     ACCESS:      18941  HIT:      18941  MISS:          0  HIT %:        100  MISS %:          0   MPKI: 0
PSCL2 LOAD TRANSLATION ACCESS:      18941  HIT:      18941  MISS:          0  HIT %:        100  MISS %:          0   MPKI: 0
PSCL2 PREFETCH  REQUESTED:          0  ISSUED:          0  USEFUL:          0  USELESS:          0
PSCL2 USEFUL LOAD PREFETCHES:          0 PREFETCH ISSUED TO LOWER LEVEL:          0  ACCURACY: -nan
PSCL2 TIMELY PREFETCHES:          0 LATE PREFETCHES: 0 DROPPED PREFETCHES: 0
PSCL2 PREFETCHES SAME FILL-ORIGIN LEVEL: 0 DIFFERENT FILL-ORIGIN LEVEL: 0

LLC TOTAL     ACCESS:     770066  HIT:      70037  MISS:     700029  HIT %:    9.09493  MISS %:    90.9051   MPKI: 14.0006
LLC LOAD      ACCESS:      39445  HIT:       9941  MISS:      29504  HIT %:    25.2022  MISS %:    74.7978   MPKI: 0.59008
LLC RFO       ACCESS:      31647  HIT:       4934  MISS:      26713  HIT %:    15.5907  MISS %:    84.4093   MPKI: 0.53426
LLC PREFETCH  ACCESS:     656288  HIT:      18357  MISS:     637931  HIT %:     2.7971  MISS %:    97.2029   MPKI: 12.7586
AGUS PREFETCH L1 MISS: 0
LLC WRITEBACK ACCESS:      38242  HIT:      36638  MISS:       1604  HIT %:    95.8057  MISS %:    4.19434   MPKI: 0.03208
LLC LOAD TRANSLATION ACCESS:       4444  HIT:        167  MISS:       4277  HIT %:    3.75788  MISS %:    96.2421   MPKI: 0.08554
LLC PREFETCH  REQUESTED:          0  ISSUED:          0  USEFUL:       5045  USELESS:     633396
LLC USEFUL LOAD PREFETCHES:       5045 PREFETCH ISSUED TO LOWER LEVEL:     637932  ACCURACY: 0.790837
LLC TIMELY PREFETCHES:       5045 LATE PREFETCHES: 0 DROPPED PREFETCHES: 0
LLC PREFETCHES SAME FILL-ORIGIN LEVEL: 0 DIFFERENT FILL-ORIGIN LEVEL: 0
LLC AVERAGE MISS LATENCY: 153.493 cycles
LLC RQ	ACCESS:      75536	FORWARD:          0	MERGED:          0	TO_CACHE:      75536
LLC WQ	ACCESS:      38242	FORWARD:          1	MERGED:          0	TO_CACHE:      38242
LLC PQ	ACCESS:     656290	FORWARD:          0	MERGED:          0	TO_CACHE:     656289

LLC Dense regions hint to LLC: 0

RAW hits: 56704
Loads Generated: 12945742
Loads sent to L1D: 12889038
Stores Generated: 858600
Stores sent to L1D: 858601
Major fault: 0 Minor fault: 4120
Allocated PAGES: 4120
Prefetcher final stats
Training Unit Size: 336
Addr table size: 140843 140850


Triggers: 1389141
Structural address exists: 1207519 86.9256
No Prediction: 181622 13.0744
Prefetches issued: 7969117 573.672
Useful Prefetches: 531333
Useless Prefetches: 125081
Stream end: 106165
No translation: 99798208
%Stream divergence: 20478 1.47415
Stream divergence -- new stream: 0

DRAM Statistics
 CHANNEL 0
 RQ ROW_BUFFER_HIT:     376238  ROW_BUFFER_MISS:     322116
 DBUS_CONGESTED:        892
 WQ ROW_BUFFER_HIT:      19376  ROW_BUFFER_MISS:      17395  FULL:          0

 AVG_CONGESTED_CYCLE: 4
 All warmup complete: 2
Channel 0 Bank busy for read cycles: 0
Channel 0 Bank busy for write cycles: 0
Channel 0
Rank 0
0banks busy for read cycles: 16041247
0banks busy for write cycles: 8897
1banks busy for read cycles: 22309904
1banks busy for write cycles: 1597812
2banks busy for read cycles: 7990930
2banks busy for write cycles: 603268
3banks busy for read cycles: 3762755
3banks busy for write cycles: 350409
4banks busy for read cycles: 1226702
4banks busy for write cycles: 268787
5banks busy for read cycles: 513685
5banks busy for write cycles: 204358
6banks busy for read cycles: 542983
6banks busy for write cycles: 191590
7banks busy for read cycles: 438052
7banks busy for write cycles: 185598
8banks busy for read cycles: 469597
8banks busy for write cycles: 791495

CPU 0 Branch Prediction Accuracy: 95.9006% MPKI: 3.75384 Average ROB Occupancy at Mispredict: 49.1849
Branch types
NOT_BRANCH: 45421465 90.8429%
BRANCH_DIRECT_JUMP: 86243 0.172486%
BRANCH_INDIRECT: 0 0%
BRANCH_CONDITIONAL: 4321571 8.64314%
BRANCH_DIRECT_CALL: 85360 0.17072%
BRANCH_INDIRECT_CALL: 0 0%
BRANCH_RETURN: 85358 0.170716%
BRANCH_OTHER: 0 0%

DRAM PAGES: 1048576
Allocated PAGES: 4120
