
*** ChampSim Multicore Out-of-Order Simulator ***

Warmup Instructions: 50000000
Simulation Instructions: 50000000
Number of CPUs: 1
LLC sets: 2048
LLC ways: 16
Off-chip DRAM Size: 4096 MB Channels: 1 Width: 64-bit Data Rate: 6400 MT/s
CPU 0 runs traces/SPEC-CPU2017/482.sphinx3-234B.champsimtrace.xz
.xz
CPU 0 Bimodal branch predictor
BTB has LRU replacement policy
ITLB has LRU replacement policy
DTLB has LRU replacement policy
STLB has LRU replacement policy
L1I has LRU replacement policy
L1D has LRU replacement policy
Ideal ISB Prefetching
L2C has LRU replacement policy
LLC has LRU replacement policy
Heartbeat CPU 0 instructions: 10000000 cycles: 3095315 heartbeat IPC: 3.23069 cumulative IPC: 3.23069 (Simulation time: 0 hr 0 min 31 sec) 
Heartbeat CPU 0 instructions: 20000000 cycles: 6190492 heartbeat IPC: 3.23083 cumulative IPC: 3.23076 (Simulation time: 0 hr 1 min 4 sec) 
Heartbeat CPU 0 instructions: 30000001 cycles: 9283121 heartbeat IPC: 3.2335 cumulative IPC: 3.23167 (Simulation time: 0 hr 1 min 39 sec) 
Heartbeat CPU 0 instructions: 40000000 cycles: 12413857 heartbeat IPC: 3.19414 cumulative IPC: 3.22221 (Simulation time: 0 hr 2 min 15 sec) 
Heartbeat CPU 0 instructions: 50000000 cycles: 15462757 heartbeat IPC: 3.27987 cumulative IPC: 3.23358 (Simulation time: 0 hr 2 min 49 sec) 

Warmup complete CPU 0 instructions: 50000004 cycles: 15462758 (Simulation time: 0 hr 2 min 49 sec) 

Heartbeat CPU 0 instructions: 60000000 cycles: 27615746 heartbeat IPC: 0.822843 cumulative IPC: 0.822843 (Simulation time: 0 hr 3 min 36 sec) 
Heartbeat CPU 0 instructions: 70000000 cycles: 39069163 heartbeat IPC: 0.873102 cumulative IPC: 0.847228 (Simulation time: 0 hr 4 min 21 sec) 
Heartbeat CPU 0 instructions: 80000000 cycles: 50341356 heartbeat IPC: 0.887139 cumulative IPC: 0.860126 (Simulation time: 0 hr 5 min 6 sec) 
Heartbeat CPU 0 instructions: 90000001 cycles: 61776979 heartbeat IPC: 0.874461 cumulative IPC: 0.863666 (Simulation time: 0 hr 5 min 53 sec) 
Heartbeat CPU 0 instructions: 100000000 cycles: 74090109 heartbeat IPC: 0.812141 cumulative IPC: 0.852844 (Simulation time: 0 hr 6 min 41 sec) 
Finished CPU 0 instructions: 50000000 cycles: 58627383 cumulative IPC: 0.852844 (Simulation time: 0 hr 6 min 41 sec) 

ChampSim completed all CPUs

Region of Interest Statistics

CPU 0 cumulative IPC: 0.852844 instructions: 50000000 cycles: 58627383
ITLB TOTAL     ACCESS:    9670895  HIT:    9670895  MISS:          0  HIT %:        100  MISS %:          0   MPKI: 0
ITLB LOAD TRANSLATION ACCESS:    9670895  HIT:    9670895  MISS:          0  HIT %:        100  MISS %:          0   MPKI: 0
ITLB PREFETCH  REQUESTED:          0  ISSUED:          0  USEFUL:          0  USELESS:          0
ITLB USEFUL LOAD PREFETCHES:          0 PREFETCH ISSUED TO LOWER LEVEL:          0  ACCURACY: -nan
ITLB TIMELY PREFETCHES:          0 LATE PREFETCHES: 0 DROPPED PREFETCHES: 0
ITLB PREFETCHES SAME FILL-ORIGIN LEVEL: 0 DIFFERENT FILL-ORIGIN LEVEL: 0
ITLB AVERAGE MISS LATENCY: -nan cycles
ITLB RQ	ACCESS:   10475842	FORWARD:          0	MERGED:     804947	TO_CACHE:    9670895

DTLB TOTAL     ACCESS:    9053393  HIT:    8991415  MISS:      61978  HIT %:    99.3154  MISS %:   0.684583   MPKI: 1.23956
DTLB LOAD TRANSLATION ACCESS:    9053393  HIT:    8991415  MISS:      61978  HIT %:    99.3154  MISS %:   0.684583   MPKI: 1.23956
DTLB PREFETCH  REQUESTED:          0  ISSUED:          0  USEFUL:          0  USELESS:          0
DTLB USEFUL LOAD PREFETCHES:          0 PREFETCH ISSUED TO LOWER LEVEL:          0  ACCURACY: -nan
DTLB TIMELY PREFETCHES:          0 LATE PREFETCHES: 0 DROPPED PREFETCHES: 0
DTLB PREFETCHES SAME FILL-ORIGIN LEVEL: 0 DIFFERENT FILL-ORIGIN LEVEL: 0
DTLB AVERAGE MISS LATENCY: 35.8584 cycles
DTLB RQ	ACCESS:   10041699	FORWARD:          0	MERGED:     977308	TO_CACHE:    9064391

STLB TOTAL     ACCESS:      61978  HIT:      43038  MISS:      18940  HIT %:    69.4408  MISS %:    30.5592   MPKI: 0.3788
STLB LOAD TRANSLATION ACCESS:      61978  HIT:      43038  MISS:      18940  HIT %:    69.4408  MISS %:    30.5592   MPKI: 0.3788
STLB PREFETCH  REQUESTED:          0  ISSUED:          0  USEFUL:          0  USELESS:          0
STLB USEFUL LOAD PREFETCHES:          0 PREFETCH ISSUED TO LOWER LEVEL:          0  ACCURACY: -nan
STLB TIMELY PREFETCHES:          0 LATE PREFETCHES: 0 DROPPED PREFETCHES: 0
STLB PREFETCHES SAME FILL-ORIGIN LEVEL: 0 DIFFERENT FILL-ORIGIN LEVEL: 0
STLB AVERAGE MISS LATENCY: 87.7332 cycles
STLB RQ	ACCESS:      61978	FORWARD:          0	MERGED:          0	TO_CACHE:      61978

STLB Hit, L1D data hit: 0
STLB Hit, L2C data hit: 0
STLB Hit, LLC data hit: 0
STLB Hit, LLC data miss: 0
STLB STLB hints to L2: 0
L1D TOTAL     ACCESS:    9560312  HIT:    8849466  MISS:     710846  HIT %:    92.5646  MISS %:    7.43538   MPKI: 14.2169
L1D LOAD      ACCESS:    8875135  HIT:    8198372  MISS:     676763  HIT %:    92.3746  MISS %:    7.62538   MPKI: 13.5353
L1D RFO       ACCESS:     685177  HIT:     651094  MISS:      34083  HIT %:    95.0257  MISS %:    4.97434   MPKI: 0.68166
L1D PREFETCH  REQUESTED:          0  ISSUED:          0  USEFUL:          0  USELESS:          0
L1D USEFUL LOAD PREFETCHES:          0 PREFETCH ISSUED TO LOWER LEVEL:          0  ACCURACY: -nan
L1D TIMELY PREFETCHES:          0 LATE PREFETCHES: 0 DROPPED PREFETCHES: 0
L1D PREFETCHES SAME FILL-ORIGIN LEVEL: 0 DIFFERENT FILL-ORIGIN LEVEL: 0
L1D AVERAGE MISS LATENCY: 34.0757 cycles
L1D RQ	ACCESS:   12888941	FORWARD:          0	MERGED:    3693165	TO_CACHE:    9184847
L1D WQ	ACCESS:     858601	FORWARD:      10929	MERGED:       1749	TO_CACHE:     856852

L1D UNIQUE REGIONS ACCESSED: 0
L1D REGIONS CONFLICTS: 0
L1D Cross Page Prefetch Requests: 0
L1D Same Page Prefetch Requests: 0
L1D ROI Sum of L1D PQ occupancy: 0
L1D PREFETCHES PUSHED FROM L2C: 0
L1I TOTAL     ACCESS:   10475841  HIT:   10475841  MISS:          0  HIT %:        100  MISS %:          0   MPKI: 0
L1I LOAD      ACCESS:   10475841  HIT:   10475841  MISS:          0  HIT %:        100  MISS %:          0   MPKI: 0
L1I PREFETCH  REQUESTED:          0  ISSUED:          0  USEFUL:          0  USELESS:          0
L1I USEFUL LOAD PREFETCHES:          0 PREFETCH ISSUED TO LOWER LEVEL:          0  ACCURACY: -nan
L1I TIMELY PREFETCHES:          0 LATE PREFETCHES: 0 DROPPED PREFETCHES: 0
L1I PREFETCHES SAME FILL-ORIGIN LEVEL: 0 DIFFERENT FILL-ORIGIN LEVEL: 0
L1I AVERAGE MISS LATENCY: -nan cycles
L1I RQ	ACCESS:   12614906	FORWARD:          0	MERGED:    2139064	TO_CACHE:   10475842

BTB TOTAL     ACCESS:    4309220  HIT:    4298927  MISS:      10293  HIT %:    99.7611  MISS %:    0.23886   MPKI: 0.20586
BTB BRANCH_DIRECT_JUMP	ACCESS:      86243  HIT:      86192  MISS:         51
BTB BRANCH_INDIRECT	ACCESS:          0  HIT:          0  MISS:          0
BTB BRANCH_CONDITIONAL	ACCESS:    4052259  HIT:    4052080  MISS:        179
BTB BRANCH_DIRECT_CALL	ACCESS:      85360  HIT:      85282  MISS:         78
BTB BRANCH_INDIRECT_CALL	ACCESS:          0  HIT:          0  MISS:          0
BTB BRANCH_RETURN	ACCESS:      85358  HIT:      75373  MISS:       9985
BTB BRANCH_OTHER ACCESS:          0  HIT:          0  MISS:          0

L2C TOTAL     ACCESS:    4742491  HIT:    4042336  MISS:     700155  HIT %:    85.2366  MISS %:    14.7634   MPKI: 14.0031
L2C LOAD      ACCESS:     676763  HIT:     613858  MISS:      62905  HIT %:     90.705  MISS %:    9.29498   MPKI: 1.2581
L2C DATA LOAD MPKI: 1.2581
L2C INSTRUCTION LOAD MPKI: 0
L2C RFO       ACCESS:      34082  HIT:       2517  MISS:      31565  HIT %:    7.38513  MISS %:    92.6149   MPKI: 0.6313
L2C PREFETCH  ACCESS:    3970851  HIT:    3369718  MISS:     601133  HIT %:    84.8614  MISS %:    15.1386   MPKI: 12.0227
AGUS PREFETCH L1 MISS: 0
L2C DATA PREFETCH MPKI: 12.0227
L2C INSTRUCTION PREFETCH MPKI: 0
L2C WRITEBACK ACCESS:      41855  HIT:      41729  MISS:        126  HIT %:     99.699  MISS %:   0.301039   MPKI: 0.00252
L2C LOAD TRANSLATION ACCESS:      18940  HIT:      14514  MISS:       4426  HIT %:    76.6315  MISS %:    23.3685   MPKI: 0.08852
L2C PREFETCH  REQUESTED:    4194002  ISSUED:    4147249  USEFUL:     510860  USELESS:      91118
L2C USEFUL LOAD PREFETCHES:     510860 PREFETCH ISSUED TO LOWER LEVEL:     602548  ACCURACY: 84.7833
L2C TIMELY PREFETCHES:     510860 LATE PREFETCHES: 1413 DROPPED PREFETCHES: 0
L2C PREFETCHES SAME FILL-ORIGIN LEVEL: 602548 DIFFERENT FILL-ORIGIN LEVEL: 0
L2C AVERAGE MISS LATENCY: 171.838 cycles
L2C RQ	ACCESS:     729786	FORWARD:          0	MERGED:          0	TO_CACHE:     729785
L2C WQ	ACCESS:      41855	FORWARD:          1	MERGED:          0	TO_CACHE:      41855
L2C PQ	ACCESS:    4147249	FORWARD:          0	MERGED:      25155	TO_CACHE:    4122094

L2C Instructions Evicting Data 0
L2C Translations Evicting Data 4410
L2C Data Evicting Data 691189
L2C Instructions Evicting Instructions 0
L2C Translations Evicting Instructions 0
L2C Data Evicting Instructions 0
L2C Instructions Evicting Translations 0
L2C Translations Evicting Translations 16
L2C Data Evicting Translations 4414
L2C Dense regions hint from L2: 0
PSCL5 TOTAL     ACCESS:      18940  HIT:      18940  MISS:          0  HIT %:        100  MISS %:          0   MPKI: 0
PSCL5 LOAD TRANSLATION ACCESS:      18940  HIT:      18940  MISS:          0  HIT %:        100  MISS %:          0   MPKI: 0
PSCL5 PREFETCH  REQUESTED:          0  ISSUED:          0  USEFUL:          0  USELESS:          0
PSCL5 USEFUL LOAD PREFETCHES:          0 PREFETCH ISSUED TO LOWER LEVEL:          0  ACCURACY: -nan
PSCL5 TIMELY PREFETCHES:          0 LATE PREFETCHES: 0 DROPPED PREFETCHES: 0
PSCL5 PREFETCHES SAME FILL-ORIGIN LEVEL: 0 DIFFERENT FILL-ORIGIN LEVEL: 0

PSCL4 TOTAL     ACCESS:      18940  HIT:      18940  MISS:          0  HIT %:        100  MISS %:          0   MPKI: 0
PSCL4 LOAD TRANSLATION ACCESS:      18940  HIT:      18940  MISS:          0  HIT %:        100  MISS %:          0   MPKI: 0
PSCL4 PREFETCH  REQUESTED:          0  ISSUED:          0  USEFUL:          0  USELESS:          0
PSCL4 USEFUL LOAD PREFETCHES:          0 PREFETCH ISSUED TO LOWER LEVEL:          0  ACCURACY: -nan
PSCL4 TIMELY PREFETCHES:          0 LATE PREFETCHES: 0 DROPPED PREFETCHES: 0
PSCL4 PREFETCHES SAME FILL-ORIGIN LEVEL: 0 DIFFERENT FILL-ORIGIN LEVEL: 0

PSCL3 TOTAL     ACCESS:      18940  HIT:      18940  MISS:          0  HIT %:        100  MISS %:          0   MPKI: 0
PSCL3 LOAD TRANSLATION ACCESS:      18940  HIT:      18940  MISS:          0  HIT %:        100  MISS %:          0   MPKI: 0
PSCL3 PREFETCH  REQUESTED:          0  ISSUED:          0  USEFUL:          0  USELESS:          0
PSCL3 USEFUL LOAD PREFETCHES:          0 PREFETCH ISSUED TO LOWER LEVEL:          0  ACCURACY: -nan
PSCL3 TIMELY PREFETCHES:          0 LATE PREFETCHES: 0 DROPPED PREFETCHES: 0
PSCL3 PREFETCHES SAME FILL-ORIGIN LEVEL: 0 DIFFERENT FILL-ORIGIN LEVEL: 0

PSCL2 TOTAL     ACCESS:      18940  HIT:      18940  MISS:          0  HIT %:        100  MISS %:          0   MPKI: 0
PSCL2 LOAD TRANSLATION ACCESS:      18940  HIT:      18940  MISS:          0  HIT %:        100  MISS %:          0   MPKI: 0
PSCL2 PREFETCH  REQUESTED:          0  ISSUED:          0  USEFUL:          0  USELESS:          0
PSCL2 USEFUL LOAD PREFETCHES:          0 PREFETCH ISSUED TO LOWER LEVEL:          0  ACCURACY: -nan
PSCL2 TIMELY PREFETCHES:          0 LATE PREFETCHES: 0 DROPPED PREFETCHES: 0
PSCL2 PREFETCHES SAME FILL-ORIGIN LEVEL: 0 DIFFERENT FILL-ORIGIN LEVEL: 0

LLC TOTAL     ACCESS:     738254  HIT:      70269  MISS:     667985  HIT %:    9.51827  MISS %:    90.4817   MPKI: 13.3597
LLC LOAD      ACCESS:      61492  HIT:      13589  MISS:      47903  HIT %:    22.0988  MISS %:    77.9012   MPKI: 0.95806
LLC RFO       ACCESS:      31565  HIT:       4819  MISS:      26746  HIT %:    15.2669  MISS %:    84.7331   MPKI: 0.53492
LLC PREFETCH  ACCESS:     602547  HIT:      14400  MISS:     588147  HIT %:    2.38986  MISS %:    97.6101   MPKI: 11.7629
AGUS PREFETCH L1 MISS: 0
LLC WRITEBACK ACCESS:      38224  HIT:      37308  MISS:        916  HIT %:    97.6036  MISS %:     2.3964   MPKI: 0.01832
LLC LOAD TRANSLATION ACCESS:       4426  HIT:        153  MISS:       4273  HIT %:    3.45685  MISS %:    96.5432   MPKI: 0.08546
LLC PREFETCH  REQUESTED:          0  ISSUED:          0  USEFUL:       4850  USELESS:     585039
LLC USEFUL LOAD PREFETCHES:       4850 PREFETCH ISSUED TO LOWER LEVEL:     588148  ACCURACY: 0.824622
LLC TIMELY PREFETCHES:       4850 LATE PREFETCHES: 0 DROPPED PREFETCHES: 0
LLC PREFETCHES SAME FILL-ORIGIN LEVEL: 0 DIFFERENT FILL-ORIGIN LEVEL: 0
LLC AVERAGE MISS LATENCY: 148.674 cycles
LLC RQ	ACCESS:      97483	FORWARD:          0	MERGED:          0	TO_CACHE:      97483
LLC WQ	ACCESS:      38224	FORWARD:          0	MERGED:          0	TO_CACHE:      38224
LLC PQ	ACCESS:     602548	FORWARD:          0	MERGED:          0	TO_CACHE:     602548

LLC Dense regions hint to LLC: 0

RAW hits: 56801
Loads Generated: 12945742
Loads sent to L1D: 12888941
Stores Generated: 858600
Stores sent to L1D: 858601
Major fault: 0 Minor fault: 4120
Allocated PAGES: 4120
Prefetcher final stats
Training Unit Size: 448
Addr table size: 142274 142278


Triggers: 1389143
Structural address exists: 1214199 87.4063
No Prediction: 174944 12.5937
Prefetches issued: 7350910 529.169
Useful Prefetches: 510860
Useless Prefetches: 91118
Stream end: 319343
% No translation: 318188739
%Stream divergence: 95650 6.88554
Stream divergence -- new stream: 0

DRAM Statistics
 CHANNEL 0
 RQ ROW_BUFFER_HIT:     361274  ROW_BUFFER_MISS:     305688
 DBUS_CONGESTED:        859
 WQ ROW_BUFFER_HIT:      15804  ROW_BUFFER_MISS:      20186  FULL:          0

 AVG_CONGESTED_CYCLE: 4
 All warmup complete: 2
Channel 0 Bank busy for read cycles: 0
Channel 0 Bank busy for write cycles: 0
Channel 0
Rank 0
0banks busy for read cycles: 18658312
0banks busy for write cycles: 10265
1banks busy for read cycles: 20955098
1banks busy for write cycles: 1709010
2banks busy for read cycles: 8180881
2banks busy for write cycles: 637904
3banks busy for read cycles: 3890360
3banks busy for write cycles: 326170
4banks busy for read cycles: 1212975
4banks busy for write cycles: 220933
5banks busy for read cycles: 458759
5banks busy for write cycles: 174609
6banks busy for read cycles: 437288
6banks busy for write cycles: 115829
7banks busy for read cycles: 330811
7banks busy for write cycles: 143905
8banks busy for read cycles: 356297
8banks busy for write cycles: 807978

CPU 0 Branch Prediction Accuracy: 95.9006% MPKI: 3.75384 Average ROB Occupancy at Mispredict: 50.9215
Branch types
NOT_BRANCH: 45421465 90.8429%
BRANCH_DIRECT_JUMP: 86243 0.172486%
BRANCH_INDIRECT: 0 0%
BRANCH_CONDITIONAL: 4321571 8.64314%
BRANCH_DIRECT_CALL: 85360 0.17072%
BRANCH_INDIRECT_CALL: 0 0%
BRANCH_RETURN: 85358 0.170716%
BRANCH_OTHER: 0 0%

DRAM PAGES: 1048576
Allocated PAGES: 4120
