
*** ChampSim Multicore Out-of-Order Simulator ***

Warmup Instructions: 50000000
Simulation Instructions: 50000000
Number of CPUs: 1
LLC sets: 2048
LLC ways: 16
Off-chip DRAM Size: 4096 MB Channels: 1 Width: 64-bit Data Rate: 6400 MT/s
CPU 0 runs traces/SPEC-CPU2017/482.sphinx3-234B.champsimtrace.xz
.xz
CPU 0 Bimodal branch predictor
BTB has LRU replacement policy
ITLB has LRU replacement policy
DTLB has LRU replacement policy
STLB has LRU replacement policy
L1I has LRU replacement policy
L1D has LRU replacement policy
Ideal ISB Prefetching
L2C has LRU replacement policy
LLC has LRU replacement policy
Heartbeat CPU 0 instructions: 10000000 cycles: 3095267 heartbeat IPC: 3.23074 cumulative IPC: 3.23074 (Simulation time: 0 hr 0 min 28 sec) 
Heartbeat CPU 0 instructions: 20000000 cycles: 6190967 heartbeat IPC: 3.23029 cumulative IPC: 3.23051 (Simulation time: 0 hr 0 min 55 sec) 
Heartbeat CPU 0 instructions: 30000001 cycles: 9283799 heartbeat IPC: 3.23328 cumulative IPC: 3.23144 (Simulation time: 0 hr 1 min 23 sec) 
Heartbeat CPU 0 instructions: 40000000 cycles: 12414648 heartbeat IPC: 3.19402 cumulative IPC: 3.222 (Simulation time: 0 hr 1 min 50 sec) 
Heartbeat CPU 0 instructions: 50000000 cycles: 15463912 heartbeat IPC: 3.27948 cumulative IPC: 3.23333 (Simulation time: 0 hr 2 min 18 sec) 

Warmup complete CPU 0 instructions: 50000004 cycles: 15463913 (Simulation time: 0 hr 2 min 18 sec) 

Heartbeat CPU 0 instructions: 60000000 cycles: 28229438 heartbeat IPC: 0.78336 cumulative IPC: 0.78336 (Simulation time: 0 hr 2 min 59 sec) 
Heartbeat CPU 0 instructions: 70000000 cycles: 40290104 heartbeat IPC: 0.829142 cumulative IPC: 0.805601 (Simulation time: 0 hr 3 min 40 sec) 
Heartbeat CPU 0 instructions: 80000000 cycles: 52187148 heartbeat IPC: 0.840545 cumulative IPC: 0.816921 (Simulation time: 0 hr 4 min 21 sec) 
Heartbeat CPU 0 instructions: 90000001 cycles: 64233348 heartbeat IPC: 0.830137 cumulative IPC: 0.820186 (Simulation time: 0 hr 5 min 1 sec) 
Heartbeat CPU 0 instructions: 100000000 cycles: 77091233 heartbeat IPC: 0.777733 cumulative IPC: 0.811328 (Simulation time: 0 hr 5 min 43 sec) 
Finished CPU 0 instructions: 50000000 cycles: 61627352 cumulative IPC: 0.811328 (Simulation time: 0 hr 5 min 43 sec) 

ChampSim completed all CPUs

Region of Interest Statistics

CPU 0 cumulative IPC: 0.811328 instructions: 50000000 cycles: 61627352
ITLB TOTAL     ACCESS:    9681738  HIT:    9681738  MISS:          0  HIT %:        100  MISS %:          0   MPKI: 0
ITLB LOAD TRANSLATION ACCESS:    9681738  HIT:    9681738  MISS:          0  HIT %:        100  MISS %:          0   MPKI: 0
ITLB PREFETCH  REQUESTED:          0  ISSUED:          0  USEFUL:          0  USELESS:          0
ITLB USEFUL LOAD PREFETCHES:          0 PREFETCH ISSUED TO LOWER LEVEL:          0  ACCURACY: -nan
ITLB TIMELY PREFETCHES:          0 LATE PREFETCHES: 0 DROPPED PREFETCHES: 0
ITLB PREFETCHES SAME FILL-ORIGIN LEVEL: 0 DIFFERENT FILL-ORIGIN LEVEL: 0
ITLB AVERAGE MISS LATENCY: -nan cycles
ITLB RQ	ACCESS:   10488066	FORWARD:          0	MERGED:     806328	TO_CACHE:    9681738

DTLB TOTAL     ACCESS:    8736593  HIT:    8674613  MISS:      61980  HIT %:    99.2906  MISS %:    0.70943   MPKI: 1.2396
DTLB LOAD TRANSLATION ACCESS:    8736593  HIT:    8674613  MISS:      61980  HIT %:    99.2906  MISS %:    0.70943   MPKI: 1.2396
DTLB PREFETCH  REQUESTED:          0  ISSUED:          0  USEFUL:          0  USELESS:          0
DTLB USEFUL LOAD PREFETCHES:          0 PREFETCH ISSUED TO LOWER LEVEL:          0  ACCURACY: -nan
DTLB TIMELY PREFETCHES:          0 LATE PREFETCHES: 0 DROPPED PREFETCHES: 0
DTLB PREFETCHES SAME FILL-ORIGIN LEVEL: 0 DIFFERENT FILL-ORIGIN LEVEL: 0
DTLB AVERAGE MISS LATENCY: 35.2314 cycles
DTLB RQ	ACCESS:    9657517	FORWARD:          0	MERGED:     909941	TO_CACHE:    8747576

STLB TOTAL     ACCESS:      61980  HIT:      43040  MISS:      18940  HIT %:    69.4418  MISS %:    30.5582   MPKI: 0.3788
STLB LOAD TRANSLATION ACCESS:      61980  HIT:      43040  MISS:      18940  HIT %:    69.4418  MISS %:    30.5582   MPKI: 0.3788
STLB PREFETCH  REQUESTED:          0  ISSUED:          0  USEFUL:          0  USELESS:          0
STLB USEFUL LOAD PREFETCHES:          0 PREFETCH ISSUED TO LOWER LEVEL:          0  ACCURACY: -nan
STLB TIMELY PREFETCHES:          0 LATE PREFETCHES: 0 DROPPED PREFETCHES: 0
STLB PREFETCHES SAME FILL-ORIGIN LEVEL: 0 DIFFERENT FILL-ORIGIN LEVEL: 0
STLB AVERAGE MISS LATENCY: 85.6845 cycles
STLB RQ	ACCESS:      61980	FORWARD:          0	MERGED:          0	TO_CACHE:      61980

STLB Hit, L1D data hit: 0
STLB Hit, L2C data hit: 0
STLB Hit, LLC data hit: 0
STLB Hit, LLC data miss: 0
STLB STLB hints to L2: 0
L1D TOTAL     ACCESS:    9040767  HIT:    8329922  MISS:     710845  HIT %:    92.1373  MISS %:    7.86266   MPKI: 14.2169
L1D LOAD      ACCESS:    8352896  HIT:    7676134  MISS:     676762  HIT %:    91.8979  MISS %:    8.10212   MPKI: 13.5352
L1D RFO       ACCESS:     687871  HIT:     653788  MISS:      34083  HIT %:    95.0451  MISS %:    4.95485   MPKI: 0.68166
L1D PREFETCH  REQUESTED:          0  ISSUED:          0  USEFUL:          0  USELESS:          0
L1D USEFUL LOAD PREFETCHES:          0 PREFETCH ISSUED TO LOWER LEVEL:          0  ACCURACY: -nan
L1D TIMELY PREFETCHES:          0 LATE PREFETCHES: 0 DROPPED PREFETCHES: 0
L1D PREFETCHES SAME FILL-ORIGIN LEVEL: 0 DIFFERENT FILL-ORIGIN LEVEL: 0
L1D AVERAGE MISS LATENCY: 44.7695 cycles
L1D RQ	ACCESS:   12888784	FORWARD:          0	MERGED:    4077203	TO_CACHE:    8800678
L1D WQ	ACCESS:     858601	FORWARD:      10903	MERGED:       1762	TO_CACHE:     856839

L1D UNIQUE REGIONS ACCESSED: 0
L1D REGIONS CONFLICTS: 0
L1D Cross Page Prefetch Requests: 0
L1D Same Page Prefetch Requests: 0
L1D ROI Sum of L1D PQ occupancy: 0
L1D PREFETCHES PUSHED FROM L2C: 0
L1I TOTAL     ACCESS:   10488065  HIT:   10488065  MISS:          0  HIT %:        100  MISS %:          0   MPKI: 0
L1I LOAD      ACCESS:   10488065  HIT:   10488065  MISS:          0  HIT %:        100  MISS %:          0   MPKI: 0
L1I PREFETCH  REQUESTED:          0  ISSUED:          0  USEFUL:          0  USELESS:          0
L1I USEFUL LOAD PREFETCHES:          0 PREFETCH ISSUED TO LOWER LEVEL:          0  ACCURACY: -nan
L1I TIMELY PREFETCHES:          0 LATE PREFETCHES: 0 DROPPED PREFETCHES: 0
L1I PREFETCHES SAME FILL-ORIGIN LEVEL: 0 DIFFERENT FILL-ORIGIN LEVEL: 0
L1I AVERAGE MISS LATENCY: -nan cycles
L1I RQ	ACCESS:   12648547	FORWARD:          0	MERGED:    2160481	TO_CACHE:   10488066

BTB TOTAL     ACCESS:    4309220  HIT:    4298927  MISS:      10293  HIT %:    99.7611  MISS %:    0.23886   MPKI: 0.20586
BTB BRANCH_DIRECT_JUMP	ACCESS:      86243  HIT:      86192  MISS:         51
BTB BRANCH_INDIRECT	ACCESS:          0  HIT:          0  MISS:          0
BTB BRANCH_CONDITIONAL	ACCESS:    4052259  HIT:    4052080  MISS:        179
BTB BRANCH_DIRECT_CALL	ACCESS:      85360  HIT:      85282  MISS:         78
BTB BRANCH_INDIRECT_CALL	ACCESS:          0  HIT:          0  MISS:          0
BTB BRANCH_RETURN	ACCESS:      85358  HIT:      75373  MISS:       9985
BTB BRANCH_OTHER ACCESS:          0  HIT:          0  MISS:          0

L2C TOTAL     ACCESS:    1316487  HIT:     642562  MISS:     673925  HIT %:    48.8088  MISS %:    51.1912   MPKI: 13.4785
L2C LOAD      ACCESS:     676762  HIT:     557398  MISS:     119364  HIT %:    82.3625  MISS %:    17.6375   MPKI: 2.38728
L2C DATA LOAD MPKI: 2.38728
L2C INSTRUCTION LOAD MPKI: 0
L2C RFO       ACCESS:      34082  HIT:       2517  MISS:      31565  HIT %:    7.38513  MISS %:    92.6149   MPKI: 0.6313
L2C PREFETCH  ACCESS:     544848  HIT:      26397  MISS:     518451  HIT %:    4.84484  MISS %:    95.1552   MPKI: 10.369
AGUS PREFETCH L1 MISS: 0
L2C DATA PREFETCH MPKI: 10.369
L2C INSTRUCTION PREFETCH MPKI: 0
L2C WRITEBACK ACCESS:      41855  HIT:      41728  MISS:        127  HIT %:    99.6966  MISS %:   0.303429   MPKI: 0.00254
L2C LOAD TRANSLATION ACCESS:      18940  HIT:      14522  MISS:       4418  HIT %:    76.6737  MISS %:    23.3263   MPKI: 0.08836
L2C PREFETCH  REQUESTED:     575147  ISSUED:     573652  USEFUL:     455898  USELESS:      63226
L2C USEFUL LOAD PREFETCHES:     455898 PREFETCH ISSUED TO LOWER LEVEL:     522827  ACCURACY: 87.1986
L2C TIMELY PREFETCHES:     455898 LATE PREFETCHES: 4376 DROPPED PREFETCHES: 0
L2C PREFETCHES SAME FILL-ORIGIN LEVEL: 522827 DIFFERENT FILL-ORIGIN LEVEL: 0
L2C AVERAGE MISS LATENCY: 159.08 cycles
L2C RQ	ACCESS:     729785	FORWARD:          0	MERGED:          0	TO_CACHE:     729784
L2C WQ	ACCESS:      41855	FORWARD:          1	MERGED:          0	TO_CACHE:      41855
L2C PQ	ACCESS:     573652	FORWARD:          0	MERGED:       6525	TO_CACHE:     567127

L2C Instructions Evicting Data 0
L2C Translations Evicting Data 4405
L2C Data Evicting Data 664972
L2C Instructions Evicting Instructions 0
L2C Translations Evicting Instructions 0
L2C Data Evicting Instructions 0
L2C Instructions Evicting Translations 0
L2C Translations Evicting Translations 13
L2C Data Evicting Translations 4408
L2C Dense regions hint from L2: 0
PSCL5 TOTAL     ACCESS:      18940  HIT:      18940  MISS:          0  HIT %:        100  MISS %:          0   MPKI: 0
PSCL5 LOAD TRANSLATION ACCESS:      18940  HIT:      18940  MISS:          0  HIT %:        100  MISS %:          0   MPKI: 0
PSCL5 PREFETCH  REQUESTED:          0  ISSUED:          0  USEFUL:          0  USELESS:          0
PSCL5 USEFUL LOAD PREFETCHES:          0 PREFETCH ISSUED TO LOWER LEVEL:          0  ACCURACY: -nan
PSCL5 TIMELY PREFETCHES:          0 LATE PREFETCHES: 0 DROPPED PREFETCHES: 0
PSCL5 PREFETCHES SAME FILL-ORIGIN LEVEL: 0 DIFFERENT FILL-ORIGIN LEVEL: 0

PSCL4 TOTAL     ACCESS:      18940  HIT:      18940  MISS:          0  HIT %:        100  MISS %:          0   MPKI: 0
PSCL4 LOAD TRANSLATION ACCESS:      18940  HIT:      18940  MISS:          0  HIT %:        100  MISS %:          0   MPKI: 0
PSCL4 PREFETCH  REQUESTED:          0  ISSUED:          0  USEFUL:          0  USELESS:          0
PSCL4 USEFUL LOAD PREFETCHES:          0 PREFETCH ISSUED TO LOWER LEVEL:          0  ACCURACY: -nan
PSCL4 TIMELY PREFETCHES:          0 LATE PREFETCHES: 0 DROPPED PREFETCHES: 0
PSCL4 PREFETCHES SAME FILL-ORIGIN LEVEL: 0 DIFFERENT FILL-ORIGIN LEVEL: 0

PSCL3 TOTAL     ACCESS:      18940  HIT:      18940  MISS:          0  HIT %:        100  MISS %:          0   MPKI: 0
PSCL3 LOAD TRANSLATION ACCESS:      18940  HIT:      18940  MISS:          0  HIT %:        100  MISS %:          0   MPKI: 0
PSCL3 PREFETCH  REQUESTED:          0  ISSUED:          0  USEFUL:          0  USELESS:          0
PSCL3 USEFUL LOAD PREFETCHES:          0 PREFETCH ISSUED TO LOWER LEVEL:          0  ACCURACY: -nan
PSCL3 TIMELY PREFETCHES:          0 LATE PREFETCHES: 0 DROPPED PREFETCHES: 0
PSCL3 PREFETCHES SAME FILL-ORIGIN LEVEL: 0 DIFFERENT FILL-ORIGIN LEVEL: 0

PSCL2 TOTAL     ACCESS:      18940  HIT:      18940  MISS:          0  HIT %:        100  MISS %:          0   MPKI: 0
PSCL2 LOAD TRANSLATION ACCESS:      18940  HIT:      18940  MISS:          0  HIT %:        100  MISS %:          0   MPKI: 0
PSCL2 PREFETCH  REQUESTED:          0  ISSUED:          0  USEFUL:          0  USELESS:          0
PSCL2 USEFUL LOAD PREFETCHES:          0 PREFETCH ISSUED TO LOWER LEVEL:          0  ACCURACY: -nan
PSCL2 TIMELY PREFETCHES:          0 LATE PREFETCHES: 0 DROPPED PREFETCHES: 0
PSCL2 PREFETCHES SAME FILL-ORIGIN LEVEL: 0 DIFFERENT FILL-ORIGIN LEVEL: 0

LLC TOTAL     ACCESS:     712023  HIT:      72395  MISS:     639628  HIT %:    10.1675  MISS %:    89.8325   MPKI: 12.7926
LLC LOAD      ACCESS:     114988  HIT:      16071  MISS:      98917  HIT %:    13.9762  MISS %:    86.0238   MPKI: 1.97834
LLC RFO       ACCESS:      31565  HIT:       5089  MISS:      26476  HIT %:    16.1223  MISS %:    83.8777   MPKI: 0.52952
LLC PREFETCH  ACCESS:     522827  HIT:      13513  MISS:     509314  HIT %:     2.5846  MISS %:    97.4154   MPKI: 10.1863
AGUS PREFETCH L1 MISS: 0
LLC WRITEBACK ACCESS:      38225  HIT:      37575  MISS:        650  HIT %:    98.2995  MISS %:    1.70046   MPKI: 0.013
LLC LOAD TRANSLATION ACCESS:       4418  HIT:        147  MISS:       4271  HIT %:     3.3273  MISS %:    96.6727   MPKI: 0.08542
LLC PREFETCH  REQUESTED:          0  ISSUED:          0  USEFUL:       4665  USELESS:     506118
LLC USEFUL LOAD PREFETCHES:       4665 PREFETCH ISSUED TO LOWER LEVEL:     509314  ACCURACY: 0.915938
LLC TIMELY PREFETCHES:       4665 LATE PREFETCHES: 0 DROPPED PREFETCHES: 0
LLC PREFETCHES SAME FILL-ORIGIN LEVEL: 0 DIFFERENT FILL-ORIGIN LEVEL: 0
LLC AVERAGE MISS LATENCY: 136.006 cycles
LLC RQ	ACCESS:     150971	FORWARD:          0	MERGED:          0	TO_CACHE:     150971
LLC WQ	ACCESS:      38225	FORWARD:          0	MERGED:          0	TO_CACHE:      38225
LLC PQ	ACCESS:     522827	FORWARD:          0	MERGED:          0	TO_CACHE:     522827

LLC Dense regions hint to LLC: 0

RAW hits: 56958
Loads Generated: 12945742
Loads sent to L1D: 12888784
Stores Generated: 858600
Stores sent to L1D: 858601
Major fault: 0 Minor fault: 4120
Allocated PAGES: 4120
Prefetcher final stats
Training Unit Size: 448
Addr table size: 142288 142292


Triggers: 1389143
Structural address exists: 186551 13.4292
No Prediction: 1202592 86.5708
Prefetches issued: 989193 71.2089
Useful Prefetches: 455898
Useless Prefetches: 63226
Stream end: 74931
No translation: 75437716
%Stream divergence: 96006 6.91117
Stream divergence -- new stream: 0

DRAM Statistics
 CHANNEL 0
 RQ ROW_BUFFER_HIT:     431213  ROW_BUFFER_MISS:     207763
 DBUS_CONGESTED:         77
 WQ ROW_BUFFER_HIT:       4303  ROW_BUFFER_MISS:      30971  FULL:          0

 AVG_CONGESTED_CYCLE: 3
 All warmup complete: 2
Channel 0 Bank busy for read cycles: 0
Channel 0 Bank busy for write cycles: 0
Channel 0
Rank 0
0banks busy for read cycles: 43378036
0banks busy for write cycles: 14435
1banks busy for read cycles: 6130647
1banks busy for write cycles: 1535085
2banks busy for read cycles: 2282341
2banks busy for write cycles: 598217
3banks busy for read cycles: 1212120
3banks busy for write cycles: 291110
4banks busy for read cycles: 715027
4banks busy for write cycles: 178931
5banks busy for read cycles: 619099
5banks busy for write cycles: 103981
6banks busy for read cycles: 882383
6banks busy for write cycles: 72230
7banks busy for read cycles: 1223275
7banks busy for write cycles: 39481
8banks busy for read cycles: 2322925
8banks busy for write cycles: 28030

CPU 0 Branch Prediction Accuracy: 95.9006% MPKI: 3.75384 Average ROB Occupancy at Mispredict: 68.1943
Branch types
NOT_BRANCH: 45421465 90.8429%
BRANCH_DIRECT_JUMP: 86243 0.172486%
BRANCH_INDIRECT: 0 0%
BRANCH_CONDITIONAL: 4321571 8.64314%
BRANCH_DIRECT_CALL: 85360 0.17072%
BRANCH_INDIRECT_CALL: 0 0%
BRANCH_RETURN: 85358 0.170716%
BRANCH_OTHER: 0 0%

DRAM PAGES: 1048576
Allocated PAGES: 4120
