
*** ChampSim Multicore Out-of-Order Simulator ***

Warmup Instructions: 50000000
Simulation Instructions: 50000000
Number of CPUs: 1
LLC sets: 2048
LLC ways: 16
Off-chip DRAM Size: 4096 MB Channels: 1 Width: 64-bit Data Rate: 6400 MT/s
CPU 0 runs traces/SPEC-CPU2017/602.gcc_s-2226B.champsimtrace.xz
.xz
CPU 0 Bimodal branch predictor
BTB has LRU replacement policy
ITLB has LRU replacement policy
DTLB has LRU replacement policy
STLB has LRU replacement policy
L1I has LRU replacement policy
L1D has LRU replacement policy
Ideal ISB Prefetching
L2C has LRU replacement policy
LLC has LRU replacement policy
Heartbeat CPU 0 instructions: 10000001 cycles: 3844773 heartbeat IPC: 2.60093 cumulative IPC: 2.60093 (Simulation time: 0 hr 0 min 38 sec) 
Heartbeat CPU 0 instructions: 20000000 cycles: 7692334 heartbeat IPC: 2.59905 cumulative IPC: 2.59999 (Simulation time: 0 hr 1 min 16 sec) 
Heartbeat CPU 0 instructions: 30000001 cycles: 11535145 heartbeat IPC: 2.60226 cumulative IPC: 2.60075 (Simulation time: 0 hr 1 min 54 sec) 
Heartbeat CPU 0 instructions: 40000000 cycles: 15346194 heartbeat IPC: 2.62395 cumulative IPC: 2.60651 (Simulation time: 0 hr 2 min 33 sec) 
Heartbeat CPU 0 instructions: 50000000 cycles: 19103426 heartbeat IPC: 2.66153 cumulative IPC: 2.61733 (Simulation time: 0 hr 3 min 11 sec) 

Warmup complete CPU 0 instructions: 50000004 cycles: 19103427 (Simulation time: 0 hr 3 min 11 sec) 

Heartbeat CPU 0 instructions: 60000000 cycles: 49475976 heartbeat IPC: 0.329245 cumulative IPC: 0.329245 (Simulation time: 0 hr 4 min 15 sec) 
Heartbeat CPU 0 instructions: 70000000 cycles: 79674899 heartbeat IPC: 0.331138 cumulative IPC: 0.330188 (Simulation time: 0 hr 5 min 19 sec) 
Heartbeat CPU 0 instructions: 80000000 cycles: 109936185 heartbeat IPC: 0.330455 cumulative IPC: 0.330277 (Simulation time: 0 hr 6 min 23 sec) 
Heartbeat CPU 0 instructions: 90000001 cycles: 140240169 heartbeat IPC: 0.32999 cumulative IPC: 0.330205 (Simulation time: 0 hr 7 min 27 sec) 
Heartbeat CPU 0 instructions: 100000000 cycles: 170521677 heartbeat IPC: 0.330234 cumulative IPC: 0.330211 (Simulation time: 0 hr 8 min 31 sec) 
Finished CPU 0 instructions: 50000003 cycles: 151418285 cumulative IPC: 0.330211 (Simulation time: 0 hr 8 min 31 sec) 

ChampSim completed all CPUs

Region of Interest Statistics

CPU 0 cumulative IPC: 0.330211 instructions: 50000003 cycles: 151418285
ITLB TOTAL     ACCESS:   11759407  HIT:   11759407  MISS:          0  HIT %:        100  MISS %:          0   MPKI: 0
ITLB LOAD TRANSLATION ACCESS:   11759407  HIT:   11759407  MISS:          0  HIT %:        100  MISS %:          0   MPKI: 0
ITLB PREFETCH  REQUESTED:          0  ISSUED:          0  USEFUL:          0  USELESS:          0
ITLB USEFUL LOAD PREFETCHES:          0 PREFETCH ISSUED TO LOWER LEVEL:          0  ACCURACY: -nan
ITLB TIMELY PREFETCHES:          0 LATE PREFETCHES: 0 DROPPED PREFETCHES: 0
ITLB PREFETCHES SAME FILL-ORIGIN LEVEL: 0 DIFFERENT FILL-ORIGIN LEVEL: 0
ITLB AVERAGE MISS LATENCY: -nan cycles
ITLB RQ	ACCESS:   11932267	FORWARD:          0	MERGED:     172860	TO_CACHE:   11759407

DTLB TOTAL     ACCESS:    7717488  HIT:    7648999  MISS:      68489  HIT %:    99.1125  MISS %:   0.887452   MPKI: 1.36978
DTLB LOAD TRANSLATION ACCESS:    7717488  HIT:    7648999  MISS:      68489  HIT %:    99.1125  MISS %:   0.887452   MPKI: 1.36978
DTLB PREFETCH  REQUESTED:          0  ISSUED:          0  USEFUL:          0  USELESS:          0
DTLB USEFUL LOAD PREFETCHES:          0 PREFETCH ISSUED TO LOWER LEVEL:          0  ACCURACY: -nan
DTLB TIMELY PREFETCHES:          0 LATE PREFETCHES: 0 DROPPED PREFETCHES: 0
DTLB PREFETCHES SAME FILL-ORIGIN LEVEL: 0 DIFFERENT FILL-ORIGIN LEVEL: 0
DTLB AVERAGE MISS LATENCY: 73.0239 cycles
DTLB RQ	ACCESS:    9079281	FORWARD:          0	MERGED:    1361549	TO_CACHE:    7717732

STLB TOTAL     ACCESS:      68489  HIT:       2398  MISS:      66091  HIT %:    3.50129  MISS %:    96.4987   MPKI: 1.32182
STLB LOAD TRANSLATION ACCESS:      68489  HIT:       2398  MISS:      66091  HIT %:    3.50129  MISS %:    96.4987   MPKI: 1.32182
STLB PREFETCH  REQUESTED:          0  ISSUED:          0  USEFUL:          0  USELESS:          0
STLB USEFUL LOAD PREFETCHES:          0 PREFETCH ISSUED TO LOWER LEVEL:          0  ACCURACY: -nan
STLB TIMELY PREFETCHES:          0 LATE PREFETCHES: 0 DROPPED PREFETCHES: 0
STLB PREFETCHES SAME FILL-ORIGIN LEVEL: 0 DIFFERENT FILL-ORIGIN LEVEL: 0
STLB AVERAGE MISS LATENCY: 66.3466 cycles
STLB RQ	ACCESS:      68488	FORWARD:          0	MERGED:          0	TO_CACHE:      68488

STLB Hit, L1D data hit: 0
STLB Hit, L2C data hit: 0
STLB Hit, LLC data hit: 0
STLB Hit, LLC data miss: 0
STLB STLB hints to L2: 0
L1D TOTAL     ACCESS:    7872798  HIT:    4367810  MISS:    3504988  HIT %:    55.4798  MISS %:    44.5202   MPKI: 70.0998
L1D LOAD      ACCESS:    7217899  HIT:    3714259  MISS:    3503640  HIT %:     51.459  MISS %:     48.541   MPKI: 70.0728
L1D RFO       ACCESS:     654899  HIT:     653551  MISS:       1348  HIT %:    99.7942  MISS %:   0.205833   MPKI: 0.02696
L1D PREFETCH  REQUESTED:          0  ISSUED:          0  USEFUL:          0  USELESS:          0
L1D USEFUL LOAD PREFETCHES:          0 PREFETCH ISSUED TO LOWER LEVEL:          0  ACCURACY: -nan
L1D TIMELY PREFETCHES:          0 LATE PREFETCHES: 0 DROPPED PREFETCHES: 0
L1D PREFETCHES SAME FILL-ORIGIN LEVEL: 0 DIFFERENT FILL-ORIGIN LEVEL: 0
L1D AVERAGE MISS LATENCY: 15.3711 cycles
L1D RQ	ACCESS:   17950349	FORWARD:          0	MERGED:    9524586	TO_CACHE:    8424378
L1D WQ	ACCESS:     726205	FORWARD:       1385	MERGED:      71302	TO_CACHE:     654903

L1D UNIQUE REGIONS ACCESSED: 0
L1D REGIONS CONFLICTS: 0
L1D Cross Page Prefetch Requests: 0
L1D Same Page Prefetch Requests: 0
L1D ROI Sum of L1D PQ occupancy: 0
L1D PREFETCHES PUSHED FROM L2C: 0
L1I TOTAL     ACCESS:   11932266  HIT:   11932266  MISS:          0  HIT %:        100  MISS %:          0   MPKI: 0
L1I LOAD      ACCESS:   11932266  HIT:   11932266  MISS:          0  HIT %:        100  MISS %:          0   MPKI: 0
L1I PREFETCH  REQUESTED:          0  ISSUED:          0  USEFUL:          0  USELESS:          0
L1I USEFUL LOAD PREFETCHES:          0 PREFETCH ISSUED TO LOWER LEVEL:          0  ACCURACY: -nan
L1I TIMELY PREFETCHES:          0 LATE PREFETCHES: 0 DROPPED PREFETCHES: 0
L1I PREFETCHES SAME FILL-ORIGIN LEVEL: 0 DIFFERENT FILL-ORIGIN LEVEL: 0
L1I AVERAGE MISS LATENCY: -nan cycles
L1I RQ	ACCESS:   17224990	FORWARD:          0	MERGED:    5292723	TO_CACHE:   11932267

BTB TOTAL     ACCESS:   11928195  HIT:   11928097  MISS:         98  HIT %:    99.9992  MISS %: 0.000821583   MPKI: 0.00196
BTB BRANCH_DIRECT_JUMP	ACCESS:     168848  HIT:     168822  MISS:         26
BTB BRANCH_INDIRECT	ACCESS:          0  HIT:          0  MISS:          0
BTB BRANCH_CONDITIONAL	ACCESS:   11592637  HIT:   11592588  MISS:         49
BTB BRANCH_DIRECT_CALL	ACCESS:      83355  HIT:      83345  MISS:         10
BTB BRANCH_INDIRECT_CALL	ACCESS:          0  HIT:          0  MISS:          0
BTB BRANCH_RETURN	ACCESS:      83355  HIT:      83342  MISS:         13
BTB BRANCH_OTHER ACCESS:          0  HIT:          0  MISS:          0

L2C TOTAL     ACCESS:   23239070  HIT:   19718267  MISS:    3520803  HIT %:    84.8496  MISS %:    15.1504   MPKI: 70.4161
L2C LOAD      ACCESS:    3503638  HIT:    3487374  MISS:      16264  HIT %:    99.5358  MISS %:   0.464203   MPKI: 0.32528
L2C DATA LOAD MPKI: 0.32528
L2C INSTRUCTION LOAD MPKI: 0
L2C RFO       ACCESS:       1348  HIT:          0  MISS:       1348  HIT %:          0  MISS %:        100   MPKI: 0.02696
L2C PREFETCH  ACCESS:   19660819  HIT:   16173201  MISS:    3487618  HIT %:    82.2611  MISS %:    17.7389   MPKI: 69.7524
AGUS PREFETCH L1 MISS: 0
L2C DATA PREFETCH MPKI: 69.7524
L2C INSTRUCTION PREFETCH MPKI: 0
L2C WRITEBACK ACCESS:       5610  HIT:       5599  MISS:         11  HIT %:    99.8039  MISS %:   0.196078   MPKI: 0.00022
L2C LOAD TRANSLATION ACCESS:      67655  HIT:      52093  MISS:      15562  HIT %:     76.998  MISS %:     23.002   MPKI: 0.31124
L2C PREFETCH  REQUESTED:   27887249  ISSUED:   27887236  USEFUL:    3485844  USELESS:       1755
L2C USEFUL LOAD PREFETCHES:    3485844 PREFETCH ISSUED TO LOWER LEVEL:    3498455  ACCURACY: 99.6395
L2C TIMELY PREFETCHES:    3485844 LATE PREFETCHES: 10834 DROPPED PREFETCHES: 0
L2C PREFETCHES SAME FILL-ORIGIN LEVEL: 3498455 DIFFERENT FILL-ORIGIN LEVEL: 0
L2C AVERAGE MISS LATENCY: 109.075 cycles
L2C RQ	ACCESS:    3572643	FORWARD:          0	MERGED:          0	TO_CACHE:    3572641
L2C WQ	ACCESS:       5610	FORWARD:          2	MERGED:          0	TO_CACHE:       5610
L2C PQ	ACCESS:   27887236	FORWARD:          0	MERGED:     229865	TO_CACHE:   27657371

L2C Instructions Evicting Data 0
L2C Translations Evicting Data 15520
L2C Data Evicting Data 3489717
L2C Instructions Evicting Instructions 0
L2C Translations Evicting Instructions 0
L2C Data Evicting Instructions 0
L2C Instructions Evicting Translations 0
L2C Translations Evicting Translations 42
L2C Data Evicting Translations 15513
L2C Dense regions hint from L2: 0
PSCL5 TOTAL     ACCESS:      66090  HIT:      66090  MISS:          0  HIT %:        100  MISS %:          0   MPKI: 0
PSCL5 LOAD TRANSLATION ACCESS:      66090  HIT:      66090  MISS:          0  HIT %:        100  MISS %:          0   MPKI: 0
PSCL5 PREFETCH  REQUESTED:          0  ISSUED:          0  USEFUL:          0  USELESS:          0
PSCL5 USEFUL LOAD PREFETCHES:          0 PREFETCH ISSUED TO LOWER LEVEL:          0  ACCURACY: -nan
PSCL5 TIMELY PREFETCHES:          0 LATE PREFETCHES: 0 DROPPED PREFETCHES: 0
PSCL5 PREFETCHES SAME FILL-ORIGIN LEVEL: 0 DIFFERENT FILL-ORIGIN LEVEL: 0

PSCL4 TOTAL     ACCESS:      66090  HIT:      66090  MISS:          0  HIT %:        100  MISS %:          0   MPKI: 0
PSCL4 LOAD TRANSLATION ACCESS:      66090  HIT:      66090  MISS:          0  HIT %:        100  MISS %:          0   MPKI: 0
PSCL4 PREFETCH  REQUESTED:          0  ISSUED:          0  USEFUL:          0  USELESS:          0
PSCL4 USEFUL LOAD PREFETCHES:          0 PREFETCH ISSUED TO LOWER LEVEL:          0  ACCURACY: -nan
PSCL4 TIMELY PREFETCHES:          0 LATE PREFETCHES: 0 DROPPED PREFETCHES: 0
PSCL4 PREFETCHES SAME FILL-ORIGIN LEVEL: 0 DIFFERENT FILL-ORIGIN LEVEL: 0

PSCL3 TOTAL     ACCESS:      66088  HIT:      66081  MISS:          7  HIT %:    99.9894  MISS %:  0.0105919   MPKI: 0.00014
PSCL3 LOAD TRANSLATION ACCESS:      66088  HIT:      66081  MISS:          7  HIT %:    99.9894  MISS %:  0.0105919   MPKI: 0.00014
PSCL3 PREFETCH  REQUESTED:          0  ISSUED:          0  USEFUL:          0  USELESS:          0
PSCL3 USEFUL LOAD PREFETCHES:          0 PREFETCH ISSUED TO LOWER LEVEL:          0  ACCURACY: -nan
PSCL3 TIMELY PREFETCHES:          0 LATE PREFETCHES: 0 DROPPED PREFETCHES: 0
PSCL3 PREFETCHES SAME FILL-ORIGIN LEVEL: 0 DIFFERENT FILL-ORIGIN LEVEL: 0

PSCL2 TOTAL     ACCESS:      66090  HIT:      64531  MISS:       1559  HIT %:    97.6411  MISS %:     2.3589   MPKI: 0.03118
PSCL2 LOAD TRANSLATION ACCESS:      66090  HIT:      64531  MISS:       1559  HIT %:    97.6411  MISS %:     2.3589   MPKI: 0.03118
PSCL2 PREFETCH  REQUESTED:          0  ISSUED:          0  USEFUL:          0  USELESS:          0
PSCL2 USEFUL LOAD PREFETCHES:          0 PREFETCH ISSUED TO LOWER LEVEL:          0  ACCURACY: -nan
PSCL2 TIMELY PREFETCHES:          0 LATE PREFETCHES: 0 DROPPED PREFETCHES: 0
PSCL2 PREFETCHES SAME FILL-ORIGIN LEVEL: 0 DIFFERENT FILL-ORIGIN LEVEL: 0

LLC TOTAL     ACCESS:    3526400  HIT:       7628  MISS:    3518772  HIT %:   0.216311  MISS %:    99.7837   MPKI: 70.3754
LLC LOAD      ACCESS:       5430  HIT:        223  MISS:       5207  HIT %:    4.10681  MISS %:    95.8932   MPKI: 0.10414
LLC RFO       ACCESS:       1348  HIT:          0  MISS:       1348  HIT %:          0  MISS %:        100   MPKI: 0.02696
LLC PREFETCH  ACCESS:    3498453  HIT:       1039  MISS:    3497414  HIT %:  0.0296988  MISS %:    99.9703   MPKI: 69.9483
AGUS PREFETCH L1 MISS: 0
LLC WRITEBACK ACCESS:       5607  HIT:       5596  MISS:         11  HIT %:    99.8038  MISS %:   0.196183   MPKI: 0.00022
LLC LOAD TRANSLATION ACCESS:      15562  HIT:        770  MISS:      14792  HIT %:    4.94795  MISS %:     95.052   MPKI: 0.29584
LLC PREFETCH  REQUESTED:          0  ISSUED:          0  USEFUL:        161  USELESS:    3496876
LLC USEFUL LOAD PREFETCHES:        161 PREFETCH ISSUED TO LOWER LEVEL:    3497416  ACCURACY: 0.0046034
LLC TIMELY PREFETCHES:        161 LATE PREFETCHES: 0 DROPPED PREFETCHES: 0
LLC PREFETCHES SAME FILL-ORIGIN LEVEL: 0 DIFFERENT FILL-ORIGIN LEVEL: 0
LLC AVERAGE MISS LATENCY: 79.1202 cycles
LLC RQ	ACCESS:      22340	FORWARD:          0	MERGED:          0	TO_CACHE:      22340
LLC WQ	ACCESS:       5607	FORWARD:          0	MERGED:          0	TO_CACHE:       5607
LLC PQ	ACCESS:    3498455	FORWARD:          0	MERGED:          0	TO_CACHE:    3498455

LLC Dense regions hint to LLC: 0

RAW hits: 4253
Loads Generated: 17954605
Loads sent to L1D: 17950349
Stores Generated: 726205
Stores sent to L1D: 726205
Major fault: 0 Minor fault: 48887
Allocated PAGES: 48887
Prefetcher final stats
Training Unit Size: 63
Addr table size: 2553053 2553054


Triggers: 7000290
Structural address exists: 4447096 63.5273
No Prediction: 2553194 36.4727
Prefetches issued: 35339416 504.828
Useful Prefetches: 3485844
Useless Prefetches: 1755
Stream end: 36544
No translation: 1510506
%Stream divergence: 242 0.003457
Stream divergence -- new stream: 0

DRAM Statistics
 CHANNEL 0
 RQ ROW_BUFFER_HIT:    3229521  ROW_BUFFER_MISS:     289240
 DBUS_CONGESTED:       4015
 WQ ROW_BUFFER_HIT:        252  ROW_BUFFER_MISS:       5370  FULL:          0

 AVG_CONGESTED_CYCLE: 4
 All warmup complete: 2
Channel 0 Bank busy for read cycles: 0
Channel 0 Bank busy for write cycles: 0
Channel 0
Rank 0
0banks busy for read cycles: 18029341
0banks busy for write cycles: 3148
1banks busy for read cycles: 72811743
1banks busy for write cycles: 533330
2banks busy for read cycles: 50097038
2banks busy for write cycles: 221415
3banks busy for read cycles: 7329797
3banks busy for write cycles: 97596
4banks busy for read cycles: 1760618
4banks busy for write cycles: 38724
5banks busy for read cycles: 284816
5banks busy for write cycles: 13303
6banks busy for read cycles: 26335
6banks busy for write cycles: 8176
7banks busy for read cycles: 26200
7banks busy for write cycles: 1240
8banks busy for read cycles: 134905
8banks busy for write cycles: 561

CPU 0 Branch Prediction Accuracy: 99.1302% MPKI: 3.1024 Average ROB Occupancy at Mispredict: 98.4019
Branch types
NOT_BRANCH: 32166917 64.3338%
BRANCH_DIRECT_JUMP: 168848 0.337696%
BRANCH_INDIRECT: 0 0%
BRANCH_CONDITIONAL: 17497543 34.9951%
BRANCH_DIRECT_CALL: 83355 0.16671%
BRANCH_INDIRECT_CALL: 0 0%
BRANCH_RETURN: 83355 0.16671%
BRANCH_OTHER: 0 0%

DRAM PAGES: 1048576
Allocated PAGES: 48887
