
*** ChampSim Multicore Out-of-Order Simulator ***

Warmup Instructions: 50000000
Simulation Instructions: 50000000
Number of CPUs: 1
LLC sets: 2048
LLC ways: 16
Off-chip DRAM Size: 4096 MB Channels: 1 Width: 64-bit Data Rate: 6400 MT/s
CPU 0 runs traces/SPEC-CPU2017/602.gcc_s-2226B.champsimtrace.xz
.xz
CPU 0 Bimodal branch predictor
BTB has LRU replacement policy
ITLB has LRU replacement policy
DTLB has LRU replacement policy
STLB has LRU replacement policy
L1I has LRU replacement policy
L1D has LRU replacement policy
Ideal ISB Prefetching
L2C has LRU replacement policy
LLC has LRU replacement policy
Heartbeat CPU 0 instructions: 10000001 cycles: 3844773 heartbeat IPC: 2.60093 cumulative IPC: 2.60093 (Simulation time: 0 hr 0 min 38 sec) 
Heartbeat CPU 0 instructions: 20000000 cycles: 7692334 heartbeat IPC: 2.59905 cumulative IPC: 2.59999 (Simulation time: 0 hr 1 min 17 sec) 
Heartbeat CPU 0 instructions: 30000001 cycles: 11535145 heartbeat IPC: 2.60226 cumulative IPC: 2.60075 (Simulation time: 0 hr 1 min 55 sec) 
Heartbeat CPU 0 instructions: 40000000 cycles: 15349183 heartbeat IPC: 2.62189 cumulative IPC: 2.606 (Simulation time: 0 hr 2 min 32 sec) 
Heartbeat CPU 0 instructions: 50000000 cycles: 19115007 heartbeat IPC: 2.65546 cumulative IPC: 2.61575 (Simulation time: 0 hr 3 min 7 sec) 

Warmup complete CPU 0 instructions: 50000004 cycles: 19115008 (Simulation time: 0 hr 3 min 7 sec) 

Heartbeat CPU 0 instructions: 60000000 cycles: 57608337 heartbeat IPC: 0.259785 cumulative IPC: 0.259785 (Simulation time: 0 hr 4 min 12 sec) 
Heartbeat CPU 0 instructions: 70000000 cycles: 96006586 heartbeat IPC: 0.260429 cumulative IPC: 0.260106 (Simulation time: 0 hr 5 min 17 sec) 
Heartbeat CPU 0 instructions: 80000000 cycles: 134349717 heartbeat IPC: 0.260803 cumulative IPC: 0.260338 (Simulation time: 0 hr 6 min 22 sec) 
Heartbeat CPU 0 instructions: 90000001 cycles: 172776460 heartbeat IPC: 0.260235 cumulative IPC: 0.260312 (Simulation time: 0 hr 7 min 27 sec) 
Heartbeat CPU 0 instructions: 100000000 cycles: 211215272 heartbeat IPC: 0.260154 cumulative IPC: 0.260281 (Simulation time: 0 hr 8 min 32 sec) 
Finished CPU 0 instructions: 50000003 cycles: 192100299 cumulative IPC: 0.260281 (Simulation time: 0 hr 8 min 32 sec) 

ChampSim completed all CPUs

Region of Interest Statistics

CPU 0 cumulative IPC: 0.260281 instructions: 50000003 cycles: 192100299
ITLB TOTAL     ACCESS:   11945889  HIT:   11945889  MISS:          0  HIT %:        100  MISS %:          0   MPKI: 0
ITLB LOAD TRANSLATION ACCESS:   11945889  HIT:   11945889  MISS:          0  HIT %:        100  MISS %:          0   MPKI: 0
ITLB PREFETCH  REQUESTED:          0  ISSUED:          0  USEFUL:          0  USELESS:          0
ITLB USEFUL LOAD PREFETCHES:          0 PREFETCH ISSUED TO LOWER LEVEL:          0  ACCURACY: -nan
ITLB TIMELY PREFETCHES:          0 LATE PREFETCHES: 0 DROPPED PREFETCHES: 0
ITLB PREFETCHES SAME FILL-ORIGIN LEVEL: 0 DIFFERENT FILL-ORIGIN LEVEL: 0
ITLB AVERAGE MISS LATENCY: -nan cycles
ITLB RQ	ACCESS:   12118749	FORWARD:          0	MERGED:     172860	TO_CACHE:   11945889

DTLB TOTAL     ACCESS:    7717230  HIT:    7648741  MISS:      68489  HIT %:    99.1125  MISS %:   0.887482   MPKI: 1.36978
DTLB LOAD TRANSLATION ACCESS:    7717230  HIT:    7648741  MISS:      68489  HIT %:    99.1125  MISS %:   0.887482   MPKI: 1.36978
DTLB PREFETCH  REQUESTED:          0  ISSUED:          0  USEFUL:          0  USELESS:          0
DTLB USEFUL LOAD PREFETCHES:          0 PREFETCH ISSUED TO LOWER LEVEL:          0  ACCURACY: -nan
DTLB TIMELY PREFETCHES:          0 LATE PREFETCHES: 0 DROPPED PREFETCHES: 0
DTLB PREFETCHES SAME FILL-ORIGIN LEVEL: 0 DIFFERENT FILL-ORIGIN LEVEL: 0
DTLB AVERAGE MISS LATENCY: 70.3063 cycles
DTLB RQ	ACCESS:    9079239	FORWARD:          0	MERGED:    1361765	TO_CACHE:    7717474

STLB TOTAL     ACCESS:      68489  HIT:       2398  MISS:      66091  HIT %:    3.50129  MISS %:    96.4987   MPKI: 1.32182
STLB LOAD TRANSLATION ACCESS:      68489  HIT:       2398  MISS:      66091  HIT %:    3.50129  MISS %:    96.4987   MPKI: 1.32182
STLB PREFETCH  REQUESTED:          0  ISSUED:          0  USEFUL:          0  USELESS:          0
STLB USEFUL LOAD PREFETCHES:          0 PREFETCH ISSUED TO LOWER LEVEL:          0  ACCURACY: -nan
STLB TIMELY PREFETCHES:          0 LATE PREFETCHES: 0 DROPPED PREFETCHES: 0
STLB PREFETCHES SAME FILL-ORIGIN LEVEL: 0 DIFFERENT FILL-ORIGIN LEVEL: 0
STLB AVERAGE MISS LATENCY: 63.5303 cycles
STLB RQ	ACCESS:      68488	FORWARD:          0	MERGED:          0	TO_CACHE:      68488

STLB Hit, L1D data hit: 0
STLB Hit, L2C data hit: 0
STLB Hit, LLC data hit: 0
STLB Hit, LLC data miss: 0
STLB STLB hints to L2: 0
L1D TOTAL     ACCESS:    7865180  HIT:    4360192  MISS:    3504988  HIT %:    55.4366  MISS %:    44.5634   MPKI: 70.0998
L1D LOAD      ACCESS:    7210283  HIT:    3706643  MISS:    3503640  HIT %:    51.4077  MISS %:    48.5923   MPKI: 70.0728
L1D RFO       ACCESS:     654897  HIT:     653549  MISS:       1348  HIT %:    99.7942  MISS %:   0.205834   MPKI: 0.02696
L1D PREFETCH  REQUESTED:          0  ISSUED:          0  USEFUL:          0  USELESS:          0
L1D USEFUL LOAD PREFETCHES:          0 PREFETCH ISSUED TO LOWER LEVEL:          0  ACCURACY: -nan
L1D TIMELY PREFETCHES:          0 LATE PREFETCHES: 0 DROPPED PREFETCHES: 0
L1D PREFETCHES SAME FILL-ORIGIN LEVEL: 0 DIFFERENT FILL-ORIGIN LEVEL: 0
L1D AVERAGE MISS LATENCY: 27.3854 cycles
L1D RQ	ACCESS:   17950343	FORWARD:          0	MERGED:    9524620	TO_CACHE:    8424338
L1D WQ	ACCESS:     726205	FORWARD:       1385	MERGED:      71304	TO_CACHE:     654901

L1D UNIQUE REGIONS ACCESSED: 0
L1D REGIONS CONFLICTS: 0
L1D Cross Page Prefetch Requests: 0
L1D Same Page Prefetch Requests: 0
L1D ROI Sum of L1D PQ occupancy: 0
L1D PREFETCHES PUSHED FROM L2C: 0
L1I TOTAL     ACCESS:   12118748  HIT:   12118748  MISS:          0  HIT %:        100  MISS %:          0   MPKI: 0
L1I LOAD      ACCESS:   12118748  HIT:   12118748  MISS:          0  HIT %:        100  MISS %:          0   MPKI: 0
L1I PREFETCH  REQUESTED:          0  ISSUED:          0  USEFUL:          0  USELESS:          0
L1I USEFUL LOAD PREFETCHES:          0 PREFETCH ISSUED TO LOWER LEVEL:          0  ACCURACY: -nan
L1I TIMELY PREFETCHES:          0 LATE PREFETCHES: 0 DROPPED PREFETCHES: 0
L1I PREFETCHES SAME FILL-ORIGIN LEVEL: 0 DIFFERENT FILL-ORIGIN LEVEL: 0
L1I AVERAGE MISS LATENCY: -nan cycles
L1I RQ	ACCESS:   17466345	FORWARD:          0	MERGED:    5347596	TO_CACHE:   12118749

BTB TOTAL     ACCESS:   11928195  HIT:   11928097  MISS:         98  HIT %:    99.9992  MISS %: 0.000821583   MPKI: 0.00196
BTB BRANCH_DIRECT_JUMP	ACCESS:     168848  HIT:     168822  MISS:         26
BTB BRANCH_INDIRECT	ACCESS:          0  HIT:          0  MISS:          0
BTB BRANCH_CONDITIONAL	ACCESS:   11592637  HIT:   11592588  MISS:         49
BTB BRANCH_DIRECT_CALL	ACCESS:      83355  HIT:      83345  MISS:         10
BTB BRANCH_INDIRECT_CALL	ACCESS:          0  HIT:          0  MISS:          0
BTB BRANCH_RETURN	ACCESS:      83355  HIT:      83342  MISS:         13
BTB BRANCH_OTHER ACCESS:          0  HIT:          0  MISS:          0

L2C TOTAL     ACCESS:    6808458  HIT:    3285914  MISS:    3522544  HIT %:    48.2622  MISS %:    51.7378   MPKI: 70.4509
L2C LOAD      ACCESS:    3503638  HIT:    3079559  MISS:     424079  HIT %:     87.896  MISS %:     12.104   MPKI: 8.48158
L2C DATA LOAD MPKI: 8.48158
L2C INSTRUCTION LOAD MPKI: 0
L2C RFO       ACCESS:       1348  HIT:          0  MISS:       1348  HIT %:          0  MISS %:        100   MPKI: 0.02696
L2C PREFETCH  ACCESS:    3230207  HIT:     148659  MISS:    3081548  HIT %:    4.60215  MISS %:    95.3978   MPKI: 61.631
AGUS PREFETCH L1 MISS: 0
L2C DATA PREFETCH MPKI: 61.631
L2C INSTRUCTION PREFETCH MPKI: 0
L2C WRITEBACK ACCESS:       5610  HIT:       5599  MISS:         11  HIT %:    99.8039  MISS %:   0.196078   MPKI: 0.00022
L2C LOAD TRANSLATION ACCESS:      67655  HIT:      52097  MISS:      15558  HIT %:    77.0039  MISS %:    22.9961   MPKI: 0.31116
L2C PREFETCH  REQUESTED:    3363868  ISSUED:    3363868  USEFUL:    3078025  USELESS:       3525
L2C USEFUL LOAD PREFETCHES:    3078025 PREFETCH ISSUED TO LOWER LEVEL:    3123049  ACCURACY: 98.5583
L2C TIMELY PREFETCHES:    3078025 LATE PREFETCHES: 41501 DROPPED PREFETCHES: 0
L2C PREFETCHES SAME FILL-ORIGIN LEVEL: 3123049 DIFFERENT FILL-ORIGIN LEVEL: 0
L2C AVERAGE MISS LATENCY: 112.821 cycles
L2C RQ	ACCESS:    3572643	FORWARD:          0	MERGED:          0	TO_CACHE:    3572641
L2C WQ	ACCESS:       5610	FORWARD:          2	MERGED:          0	TO_CACHE:       5610
L2C PQ	ACCESS:    3363868	FORWARD:          0	MERGED:      28122	TO_CACHE:    3335746

L2C Instructions Evicting Data 0
L2C Translations Evicting Data 15515
L2C Data Evicting Data 3491466
L2C Instructions Evicting Instructions 0
L2C Translations Evicting Instructions 0
L2C Data Evicting Instructions 0
L2C Instructions Evicting Translations 0
L2C Translations Evicting Translations 43
L2C Data Evicting Translations 15509
L2C Dense regions hint from L2: 0
PSCL5 TOTAL     ACCESS:      66090  HIT:      66090  MISS:          0  HIT %:        100  MISS %:          0   MPKI: 0
PSCL5 LOAD TRANSLATION ACCESS:      66090  HIT:      66090  MISS:          0  HIT %:        100  MISS %:          0   MPKI: 0
PSCL5 PREFETCH  REQUESTED:          0  ISSUED:          0  USEFUL:          0  USELESS:          0
PSCL5 USEFUL LOAD PREFETCHES:          0 PREFETCH ISSUED TO LOWER LEVEL:          0  ACCURACY: -nan
PSCL5 TIMELY PREFETCHES:          0 LATE PREFETCHES: 0 DROPPED PREFETCHES: 0
PSCL5 PREFETCHES SAME FILL-ORIGIN LEVEL: 0 DIFFERENT FILL-ORIGIN LEVEL: 0

PSCL4 TOTAL     ACCESS:      66090  HIT:      66090  MISS:          0  HIT %:        100  MISS %:          0   MPKI: 0
PSCL4 LOAD TRANSLATION ACCESS:      66090  HIT:      66090  MISS:          0  HIT %:        100  MISS %:          0   MPKI: 0
PSCL4 PREFETCH  REQUESTED:          0  ISSUED:          0  USEFUL:          0  USELESS:          0
PSCL4 USEFUL LOAD PREFETCHES:          0 PREFETCH ISSUED TO LOWER LEVEL:          0  ACCURACY: -nan
PSCL4 TIMELY PREFETCHES:          0 LATE PREFETCHES: 0 DROPPED PREFETCHES: 0
PSCL4 PREFETCHES SAME FILL-ORIGIN LEVEL: 0 DIFFERENT FILL-ORIGIN LEVEL: 0

PSCL3 TOTAL     ACCESS:      66088  HIT:      66081  MISS:          7  HIT %:    99.9894  MISS %:  0.0105919   MPKI: 0.00014
PSCL3 LOAD TRANSLATION ACCESS:      66088  HIT:      66081  MISS:          7  HIT %:    99.9894  MISS %:  0.0105919   MPKI: 0.00014
PSCL3 PREFETCH  REQUESTED:          0  ISSUED:          0  USEFUL:          0  USELESS:          0
PSCL3 USEFUL LOAD PREFETCHES:          0 PREFETCH ISSUED TO LOWER LEVEL:          0  ACCURACY: -nan
PSCL3 TIMELY PREFETCHES:          0 LATE PREFETCHES: 0 DROPPED PREFETCHES: 0
PSCL3 PREFETCHES SAME FILL-ORIGIN LEVEL: 0 DIFFERENT FILL-ORIGIN LEVEL: 0

PSCL2 TOTAL     ACCESS:      66090  HIT:      64531  MISS:       1559  HIT %:    97.6411  MISS %:     2.3589   MPKI: 0.03118
PSCL2 LOAD TRANSLATION ACCESS:      66090  HIT:      64531  MISS:       1559  HIT %:    97.6411  MISS %:     2.3589   MPKI: 0.03118
PSCL2 PREFETCH  REQUESTED:          0  ISSUED:          0  USEFUL:          0  USELESS:          0
PSCL2 USEFUL LOAD PREFETCHES:          0 PREFETCH ISSUED TO LOWER LEVEL:          0  ACCURACY: -nan
PSCL2 TIMELY PREFETCHES:          0 LATE PREFETCHES: 0 DROPPED PREFETCHES: 0
PSCL2 PREFETCHES SAME FILL-ORIGIN LEVEL: 0 DIFFERENT FILL-ORIGIN LEVEL: 0

LLC TOTAL     ACCESS:    3528140  HIT:       9436  MISS:    3518704  HIT %:    0.26745  MISS %:    99.7326   MPKI: 70.3741
LLC LOAD      ACCESS:     382578  HIT:        862  MISS:     381716  HIT %:   0.225314  MISS %:    99.7747   MPKI: 7.63432
LLC RFO       ACCESS:       1348  HIT:          0  MISS:       1348  HIT %:          0  MISS %:        100   MPKI: 0.02696
LLC PREFETCH  ACCESS:    3123049  HIT:       2214  MISS:    3120835  HIT %:  0.0708923  MISS %:    99.9291   MPKI: 62.4167
AGUS PREFETCH L1 MISS: 0
LLC WRITEBACK ACCESS:       5607  HIT:       5596  MISS:         11  HIT %:    99.8038  MISS %:   0.196183   MPKI: 0.00022
LLC LOAD TRANSLATION ACCESS:      15558  HIT:        764  MISS:      14794  HIT %:    4.91066  MISS %:    95.0893   MPKI: 0.29588
LLC PREFETCH  REQUESTED:          0  ISSUED:          0  USEFUL:        795  USELESS:    3119879
LLC USEFUL LOAD PREFETCHES:        795 PREFETCH ISSUED TO LOWER LEVEL:    3120835  ACCURACY: 0.025474
LLC TIMELY PREFETCHES:        795 LATE PREFETCHES: 0 DROPPED PREFETCHES: 0
LLC PREFETCHES SAME FILL-ORIGIN LEVEL: 0 DIFFERENT FILL-ORIGIN LEVEL: 0
LLC AVERAGE MISS LATENCY: 82.9117 cycles
LLC RQ	ACCESS:     399484	FORWARD:          0	MERGED:          0	TO_CACHE:     399484
LLC WQ	ACCESS:       5607	FORWARD:          0	MERGED:          0	TO_CACHE:       5607
LLC PQ	ACCESS:    3123049	FORWARD:          0	MERGED:          0	TO_CACHE:    3123049

LLC Dense regions hint to LLC: 0

RAW hits: 4259
Loads Generated: 17954605
Loads sent to L1D: 17950343
Stores Generated: 726205
Stores sent to L1D: 726205
Major fault: 0 Minor fault: 48887
Allocated PAGES: 48887
Prefetcher final stats
Training Unit Size: 63
Addr table size: 2553060 2553061


Triggers: 3082384
Structural address exists: 529225 17.1693
No Prediction: 2553159 82.8307
Prefetches issued: 4214001 136.712
Useful Prefetches: 3078025
Useless Prefetches: 3525
Stream end: 4460
% No translation: 277690
%Stream divergence: 252 0.00817549
Stream divergence -- new stream: 0

DRAM Statistics
 CHANNEL 0
 RQ ROW_BUFFER_HIT:    3283083  ROW_BUFFER_MISS:     235610
 DBUS_CONGESTED:         21
 WQ ROW_BUFFER_HIT:         55  ROW_BUFFER_MISS:       5571  FULL:          0

 AVG_CONGESTED_CYCLE: 5
 All warmup complete: 2
Channel 0 Bank busy for read cycles: 0
Channel 0 Bank busy for write cycles: 0
Channel 0
Rank 0
0banks busy for read cycles: 138106296
0banks busy for write cycles: 3939
1banks busy for read cycles: 25062210
1banks busy for write cycles: 449875
2banks busy for read cycles: 4053407
2banks busy for write cycles: 113219
3banks busy for read cycles: 2144290
3banks busy for write cycles: 34309
4banks busy for read cycles: 1632053
4banks busy for write cycles: 10637
5banks busy for read cycles: 1511089
5banks busy for write cycles: 3790
6banks busy for read cycles: 1585572
6banks busy for write cycles: 2022
7banks busy for read cycles: 2792380
7banks busy for write cycles: 1248
8banks busy for read cycles: 14593821
8banks busy for write cycles: 143

CPU 0 Branch Prediction Accuracy: 99.1302% MPKI: 3.1024 Average ROB Occupancy at Mispredict: 99.8497
Branch types
NOT_BRANCH: 32166917 64.3338%
BRANCH_DIRECT_JUMP: 168848 0.337696%
BRANCH_INDIRECT: 0 0%
BRANCH_CONDITIONAL: 17497543 34.9951%
BRANCH_DIRECT_CALL: 83355 0.16671%
BRANCH_INDIRECT_CALL: 0 0%
BRANCH_RETURN: 83355 0.16671%
BRANCH_OTHER: 0 0%

DRAM PAGES: 1048576
Allocated PAGES: 48887
