
*** ChampSim Multicore Out-of-Order Simulator ***

Warmup Instructions: 50000000
Simulation Instructions: 50000000
Number of CPUs: 1
LLC sets: 2048
LLC ways: 16
Off-chip DRAM Size: 4096 MB Channels: 1 Width: 64-bit Data Rate: 6400 MT/s
CPU 0 runs traces/SPEC-CPU2017/602.gcc_s-2226B.champsimtrace.xz
.xz
CPU 0 Bimodal branch predictor
BTB has LRU replacement policy
ITLB has LRU replacement policy
DTLB has LRU replacement policy
STLB has LRU replacement policy
L1I has LRU replacement policy
L1D has LRU replacement policy
Ideal ISB Prefetching
L2C has LRU replacement policy
LLC has LRU replacement policy
Heartbeat CPU 0 instructions: 10000001 cycles: 3844773 heartbeat IPC: 2.60093 cumulative IPC: 2.60093 (Simulation time: 0 hr 0 min 38 sec) 
Heartbeat CPU 0 instructions: 20000000 cycles: 7692334 heartbeat IPC: 2.59905 cumulative IPC: 2.59999 (Simulation time: 0 hr 1 min 16 sec) 
Heartbeat CPU 0 instructions: 30000001 cycles: 11535145 heartbeat IPC: 2.60226 cumulative IPC: 2.60075 (Simulation time: 0 hr 1 min 54 sec) 
Heartbeat CPU 0 instructions: 40000000 cycles: 15349184 heartbeat IPC: 2.62189 cumulative IPC: 2.606 (Simulation time: 0 hr 2 min 31 sec) 
Heartbeat CPU 0 instructions: 50000000 cycles: 19115219 heartbeat IPC: 2.65531 cumulative IPC: 2.61572 (Simulation time: 0 hr 3 min 7 sec) 

Warmup complete CPU 0 instructions: 50000004 cycles: 19115220 (Simulation time: 0 hr 3 min 7 sec) 

Heartbeat CPU 0 instructions: 60000000 cycles: 57612927 heartbeat IPC: 0.259756 cumulative IPC: 0.259756 (Simulation time: 0 hr 4 min 12 sec) 
Heartbeat CPU 0 instructions: 70000000 cycles: 96011494 heartbeat IPC: 0.260426 cumulative IPC: 0.260091 (Simulation time: 0 hr 5 min 18 sec) 
Heartbeat CPU 0 instructions: 80000000 cycles: 134352234 heartbeat IPC: 0.260819 cumulative IPC: 0.260333 (Simulation time: 0 hr 6 min 24 sec) 
Heartbeat CPU 0 instructions: 90000001 cycles: 172785889 heartbeat IPC: 0.260189 cumulative IPC: 0.260297 (Simulation time: 0 hr 7 min 29 sec) 
Heartbeat CPU 0 instructions: 100000000 cycles: 211224733 heartbeat IPC: 0.260153 cumulative IPC: 0.260268 (Simulation time: 0 hr 8 min 35 sec) 
Finished CPU 0 instructions: 50000003 cycles: 192109548 cumulative IPC: 0.260268 (Simulation time: 0 hr 8 min 35 sec) 

ChampSim completed all CPUs

Region of Interest Statistics

CPU 0 cumulative IPC: 0.260268 instructions: 50000003 cycles: 192109548
ITLB TOTAL     ACCESS:   11945302  HIT:   11945302  MISS:          0  HIT %:        100  MISS %:          0   MPKI: 0
ITLB LOAD TRANSLATION ACCESS:   11945302  HIT:   11945302  MISS:          0  HIT %:        100  MISS %:          0   MPKI: 0
ITLB PREFETCH  REQUESTED:          0  ISSUED:          0  USEFUL:          0  USELESS:          0
ITLB USEFUL LOAD PREFETCHES:          0 PREFETCH ISSUED TO LOWER LEVEL:          0  ACCURACY: -nan
ITLB TIMELY PREFETCHES:          0 LATE PREFETCHES: 0 DROPPED PREFETCHES: 0
ITLB PREFETCHES SAME FILL-ORIGIN LEVEL: 0 DIFFERENT FILL-ORIGIN LEVEL: 0
ITLB AVERAGE MISS LATENCY: -nan cycles
ITLB RQ	ACCESS:   12118162	FORWARD:          0	MERGED:     172860	TO_CACHE:   11945302

DTLB TOTAL     ACCESS:    7717270  HIT:    7648781  MISS:      68489  HIT %:    99.1125  MISS %:   0.887477   MPKI: 1.36978
DTLB LOAD TRANSLATION ACCESS:    7717270  HIT:    7648781  MISS:      68489  HIT %:    99.1125  MISS %:   0.887477   MPKI: 1.36978
DTLB PREFETCH  REQUESTED:          0  ISSUED:          0  USEFUL:          0  USELESS:          0
DTLB USEFUL LOAD PREFETCHES:          0 PREFETCH ISSUED TO LOWER LEVEL:          0  ACCURACY: -nan
DTLB TIMELY PREFETCHES:          0 LATE PREFETCHES: 0 DROPPED PREFETCHES: 0
DTLB PREFETCHES SAME FILL-ORIGIN LEVEL: 0 DIFFERENT FILL-ORIGIN LEVEL: 0
DTLB AVERAGE MISS LATENCY: 70.3461 cycles
DTLB RQ	ACCESS:    9079266	FORWARD:          0	MERGED:    1361752	TO_CACHE:    7717514

STLB TOTAL     ACCESS:      68489  HIT:       2398  MISS:      66091  HIT %:    3.50129  MISS %:    96.4987   MPKI: 1.32182
STLB LOAD TRANSLATION ACCESS:      68489  HIT:       2398  MISS:      66091  HIT %:    3.50129  MISS %:    96.4987   MPKI: 1.32182
STLB PREFETCH  REQUESTED:          0  ISSUED:          0  USEFUL:          0  USELESS:          0
STLB USEFUL LOAD PREFETCHES:          0 PREFETCH ISSUED TO LOWER LEVEL:          0  ACCURACY: -nan
STLB TIMELY PREFETCHES:          0 LATE PREFETCHES: 0 DROPPED PREFETCHES: 0
STLB PREFETCHES SAME FILL-ORIGIN LEVEL: 0 DIFFERENT FILL-ORIGIN LEVEL: 0
STLB AVERAGE MISS LATENCY: 63.5716 cycles
STLB RQ	ACCESS:      68488	FORWARD:          0	MERGED:          0	TO_CACHE:      68488

STLB Hit, L1D data hit: 0
STLB Hit, L2C data hit: 0
STLB Hit, LLC data hit: 0
STLB Hit, LLC data miss: 0
STLB STLB hints to L2: 0
L1D TOTAL     ACCESS:    7865146  HIT:    4360158  MISS:    3504988  HIT %:    55.4365  MISS %:    44.5635   MPKI: 70.0998
L1D LOAD      ACCESS:    7210249  HIT:    3706609  MISS:    3503640  HIT %:    51.4075  MISS %:    48.5925   MPKI: 70.0728
L1D RFO       ACCESS:     654897  HIT:     653549  MISS:       1348  HIT %:    99.7942  MISS %:   0.205834   MPKI: 0.02696
L1D PREFETCH  REQUESTED:          0  ISSUED:          0  USEFUL:          0  USELESS:          0
L1D USEFUL LOAD PREFETCHES:          0 PREFETCH ISSUED TO LOWER LEVEL:          0  ACCURACY: -nan
L1D TIMELY PREFETCHES:          0 LATE PREFETCHES: 0 DROPPED PREFETCHES: 0
L1D PREFETCHES SAME FILL-ORIGIN LEVEL: 0 DIFFERENT FILL-ORIGIN LEVEL: 0
L1D AVERAGE MISS LATENCY: 27.3883 cycles
L1D RQ	ACCESS:   17950367	FORWARD:          0	MERGED:    9524617	TO_CACHE:    8424365
L1D WQ	ACCESS:     726205	FORWARD:       1385	MERGED:      71304	TO_CACHE:     654901

L1D UNIQUE REGIONS ACCESSED: 0
L1D REGIONS CONFLICTS: 0
L1D Cross Page Prefetch Requests: 0
L1D Same Page Prefetch Requests: 0
L1D ROI Sum of L1D PQ occupancy: 0
L1D PREFETCHES PUSHED FROM L2C: 0
L1I TOTAL     ACCESS:   12118161  HIT:   12118161  MISS:          0  HIT %:        100  MISS %:          0   MPKI: 0
L1I LOAD      ACCESS:   12118161  HIT:   12118161  MISS:          0  HIT %:        100  MISS %:          0   MPKI: 0
L1I PREFETCH  REQUESTED:          0  ISSUED:          0  USEFUL:          0  USELESS:          0
L1I USEFUL LOAD PREFETCHES:          0 PREFETCH ISSUED TO LOWER LEVEL:          0  ACCURACY: -nan
L1I TIMELY PREFETCHES:          0 LATE PREFETCHES: 0 DROPPED PREFETCHES: 0
L1I PREFETCHES SAME FILL-ORIGIN LEVEL: 0 DIFFERENT FILL-ORIGIN LEVEL: 0
L1I AVERAGE MISS LATENCY: -nan cycles
L1I RQ	ACCESS:   17465656	FORWARD:          0	MERGED:    5347494	TO_CACHE:   12118162

BTB TOTAL     ACCESS:   11928195  HIT:   11928097  MISS:         98  HIT %:    99.9992  MISS %: 0.000821583   MPKI: 0.00196
BTB BRANCH_DIRECT_JUMP	ACCESS:     168848  HIT:     168822  MISS:         26
BTB BRANCH_INDIRECT	ACCESS:          0  HIT:          0  MISS:          0
BTB BRANCH_CONDITIONAL	ACCESS:   11592637  HIT:   11592588  MISS:         49
BTB BRANCH_DIRECT_CALL	ACCESS:      83355  HIT:      83345  MISS:         10
BTB BRANCH_INDIRECT_CALL	ACCESS:          0  HIT:          0  MISS:          0
BTB BRANCH_RETURN	ACCESS:      83355  HIT:      83342  MISS:         13
BTB BRANCH_OTHER ACCESS:          0  HIT:          0  MISS:          0

L2C TOTAL     ACCESS:    6807993  HIT:    3285922  MISS:    3522071  HIT %:    48.2656  MISS %:    51.7344   MPKI: 70.4414
L2C LOAD      ACCESS:    3503638  HIT:    3079328  MISS:     424310  HIT %:    87.8894  MISS %:    12.1106   MPKI: 8.4862
L2C DATA LOAD MPKI: 8.4862
L2C INSTRUCTION LOAD MPKI: 0
L2C RFO       ACCESS:       1348  HIT:          0  MISS:       1348  HIT %:          0  MISS %:        100   MPKI: 0.02696
L2C PREFETCH  ACCESS:    3229742  HIT:     148898  MISS:    3080844  HIT %:    4.61021  MISS %:    95.3898   MPKI: 61.6169
AGUS PREFETCH L1 MISS: 0
L2C DATA PREFETCH MPKI: 61.6169
L2C INSTRUCTION PREFETCH MPKI: 0
L2C WRITEBACK ACCESS:       5610  HIT:       5599  MISS:         11  HIT %:    99.8039  MISS %:   0.196078   MPKI: 0.00022
L2C LOAD TRANSLATION ACCESS:      67655  HIT:      52097  MISS:      15558  HIT %:    77.0039  MISS %:    22.9961   MPKI: 0.31116
L2C PREFETCH  REQUESTED:    3363484  ISSUED:    3363484  USEFUL:    3077796  USELESS:       3046
L2C USEFUL LOAD PREFETCHES:    3077796 PREFETCH ISSUED TO LOWER LEVEL:    3122403  ACCURACY: 98.5714
L2C TIMELY PREFETCHES:    3077796 LATE PREFETCHES: 41559 DROPPED PREFETCHES: 0
L2C PREFETCHES SAME FILL-ORIGIN LEVEL: 3122403 DIFFERENT FILL-ORIGIN LEVEL: 0
L2C AVERAGE MISS LATENCY: 112.806 cycles
L2C RQ	ACCESS:    3572643	FORWARD:          0	MERGED:          0	TO_CACHE:    3572641
L2C WQ	ACCESS:       5610	FORWARD:          2	MERGED:          0	TO_CACHE:       5610
L2C PQ	ACCESS:    3363484	FORWARD:          0	MERGED:      27842	TO_CACHE:    3335642

L2C Instructions Evicting Data 0
L2C Translations Evicting Data 15516
L2C Data Evicting Data 3490992
L2C Instructions Evicting Instructions 0
L2C Translations Evicting Instructions 0
L2C Data Evicting Instructions 0
L2C Instructions Evicting Translations 0
L2C Translations Evicting Translations 42
L2C Data Evicting Translations 15510
L2C Dense regions hint from L2: 0
PSCL5 TOTAL     ACCESS:      66090  HIT:      66090  MISS:          0  HIT %:        100  MISS %:          0   MPKI: 0
PSCL5 LOAD TRANSLATION ACCESS:      66090  HIT:      66090  MISS:          0  HIT %:        100  MISS %:          0   MPKI: 0
PSCL5 PREFETCH  REQUESTED:          0  ISSUED:          0  USEFUL:          0  USELESS:          0
PSCL5 USEFUL LOAD PREFETCHES:          0 PREFETCH ISSUED TO LOWER LEVEL:          0  ACCURACY: -nan
PSCL5 TIMELY PREFETCHES:          0 LATE PREFETCHES: 0 DROPPED PREFETCHES: 0
PSCL5 PREFETCHES SAME FILL-ORIGIN LEVEL: 0 DIFFERENT FILL-ORIGIN LEVEL: 0

PSCL4 TOTAL     ACCESS:      66090  HIT:      66090  MISS:          0  HIT %:        100  MISS %:          0   MPKI: 0
PSCL4 LOAD TRANSLATION ACCESS:      66090  HIT:      66090  MISS:          0  HIT %:        100  MISS %:          0   MPKI: 0
PSCL4 PREFETCH  REQUESTED:          0  ISSUED:          0  USEFUL:          0  USELESS:          0
PSCL4 USEFUL LOAD PREFETCHES:          0 PREFETCH ISSUED TO LOWER LEVEL:          0  ACCURACY: -nan
PSCL4 TIMELY PREFETCHES:          0 LATE PREFETCHES: 0 DROPPED PREFETCHES: 0
PSCL4 PREFETCHES SAME FILL-ORIGIN LEVEL: 0 DIFFERENT FILL-ORIGIN LEVEL: 0

PSCL3 TOTAL     ACCESS:      66088  HIT:      66081  MISS:          7  HIT %:    99.9894  MISS %:  0.0105919   MPKI: 0.00014
PSCL3 LOAD TRANSLATION ACCESS:      66088  HIT:      66081  MISS:          7  HIT %:    99.9894  MISS %:  0.0105919   MPKI: 0.00014
PSCL3 PREFETCH  REQUESTED:          0  ISSUED:          0  USEFUL:          0  USELESS:          0
PSCL3 USEFUL LOAD PREFETCHES:          0 PREFETCH ISSUED TO LOWER LEVEL:          0  ACCURACY: -nan
PSCL3 TIMELY PREFETCHES:          0 LATE PREFETCHES: 0 DROPPED PREFETCHES: 0
PSCL3 PREFETCHES SAME FILL-ORIGIN LEVEL: 0 DIFFERENT FILL-ORIGIN LEVEL: 0

PSCL2 TOTAL     ACCESS:      66090  HIT:      64531  MISS:       1559  HIT %:    97.6411  MISS %:     2.3589   MPKI: 0.03118
PSCL2 LOAD TRANSLATION ACCESS:      66090  HIT:      64531  MISS:       1559  HIT %:    97.6411  MISS %:     2.3589   MPKI: 0.03118
PSCL2 PREFETCH  REQUESTED:          0  ISSUED:          0  USEFUL:          0  USELESS:          0
PSCL2 USEFUL LOAD PREFETCHES:          0 PREFETCH ISSUED TO LOWER LEVEL:          0  ACCURACY: -nan
PSCL2 TIMELY PREFETCHES:          0 LATE PREFETCHES: 0 DROPPED PREFETCHES: 0
PSCL2 PREFETCHES SAME FILL-ORIGIN LEVEL: 0 DIFFERENT FILL-ORIGIN LEVEL: 0

LLC TOTAL     ACCESS:    3527667  HIT:       8987  MISS:    3518680  HIT %:   0.254758  MISS %:    99.7452   MPKI: 70.3736
LLC LOAD      ACCESS:     382751  HIT:        786  MISS:     381965  HIT %:   0.205355  MISS %:    99.7946   MPKI: 7.6393
LLC RFO       ACCESS:       1348  HIT:          0  MISS:       1348  HIT %:          0  MISS %:        100   MPKI: 0.02696
LLC PREFETCH  ACCESS:    3122403  HIT:       1841  MISS:    3120562  HIT %:   0.058961  MISS %:     99.941   MPKI: 62.4112
AGUS PREFETCH L1 MISS: 0
LLC WRITEBACK ACCESS:       5607  HIT:       5596  MISS:         11  HIT %:    99.8038  MISS %:   0.196183   MPKI: 0.00022
LLC LOAD TRANSLATION ACCESS:      15558  HIT:        764  MISS:      14794  HIT %:    4.91066  MISS %:    95.0893   MPKI: 0.29588
LLC PREFETCH  REQUESTED:          0  ISSUED:          0  USEFUL:        713  USELESS:    3119697
LLC USEFUL LOAD PREFETCHES:        713 PREFETCH ISSUED TO LOWER LEVEL:    3120562  ACCURACY: 0.0228484
LLC TIMELY PREFETCHES:        713 LATE PREFETCHES: 0 DROPPED PREFETCHES: 0
LLC PREFETCHES SAME FILL-ORIGIN LEVEL: 0 DIFFERENT FILL-ORIGIN LEVEL: 0
LLC AVERAGE MISS LATENCY: 82.886 cycles
LLC RQ	ACCESS:     399657	FORWARD:          0	MERGED:          0	TO_CACHE:     399657
LLC WQ	ACCESS:       5607	FORWARD:          0	MERGED:          0	TO_CACHE:       5607
LLC PQ	ACCESS:    3122403	FORWARD:          0	MERGED:          0	TO_CACHE:    3122403

LLC Dense regions hint to LLC: 0

RAW hits: 4235
Loads Generated: 17954605
Loads sent to L1D: 17950367
Stores Generated: 726205
Stores sent to L1D: 726205
Major fault: 0 Minor fault: 48887
Allocated PAGES: 48887
Prefetcher final stats
Training Unit Size: 67
Addr table size: 2553016 2553023


Triggers: 7000290
Structural address exists: 529490 7.56383
No Prediction: 6470800 92.4362
Prefetches issued: 4213147 60.1853
Useful Prefetches: 3077796
Useless Prefetches: 3046
Stream end: 4931
No translation: 680752
%Stream divergence: 1350 0.0192849
Stream divergence -- new stream: 0

DRAM Statistics
 CHANNEL 0
 RQ ROW_BUFFER_HIT:    3283595  ROW_BUFFER_MISS:     235074
 DBUS_CONGESTED:         18
 WQ ROW_BUFFER_HIT:         60  ROW_BUFFER_MISS:       5566  FULL:          0

 AVG_CONGESTED_CYCLE: 5
 All warmup complete: 2
Channel 0 Bank busy for read cycles: 0
Channel 0 Bank busy for write cycles: 0
Channel 0
Rank 0
0banks busy for read cycles: 138123665
0banks busy for write cycles: 3934
1banks busy for read cycles: 25079110
1banks busy for write cycles: 447757
2banks busy for read cycles: 4054702
2banks busy for write cycles: 113056
3banks busy for read cycles: 2129991
3banks busy for write cycles: 34986
4banks busy for read cycles: 1630479
4banks busy for write cycles: 9769
5banks busy for read cycles: 1496723
5banks busy for write cycles: 3816
6banks busy for read cycles: 1587623
6banks busy for write cycles: 2145
7banks busy for read cycles: 2789111
7banks busy for write cycles: 1562
8banks busy for read cycles: 14600977
8banks busy for write cycles: 143

CPU 0 Branch Prediction Accuracy: 99.1302% MPKI: 3.1024 Average ROB Occupancy at Mispredict: 99.8706
Branch types
NOT_BRANCH: 32166917 64.3338%
BRANCH_DIRECT_JUMP: 168848 0.337696%
BRANCH_INDIRECT: 0 0%
BRANCH_CONDITIONAL: 17497543 34.9951%
BRANCH_DIRECT_CALL: 83355 0.16671%
BRANCH_INDIRECT_CALL: 0 0%
BRANCH_RETURN: 83355 0.16671%
BRANCH_OTHER: 0 0%

DRAM PAGES: 1048576
Allocated PAGES: 48887
