
*** ChampSim Multicore Out-of-Order Simulator ***

Warmup Instructions: 50000000
Simulation Instructions: 50000000
Number of CPUs: 1
LLC sets: 2048
LLC ways: 16
Off-chip DRAM Size: 4096 MB Channels: 1 Width: 64-bit Data Rate: 6400 MT/s
CPU 0 runs traces/SPEC-CPU2017/450.soplex-247B.champsimtrace.xz
.xz
CPU 0 Bimodal branch predictor
BTB has LRU replacement policy
ITLB has LRU replacement policy
DTLB has LRU replacement policy
STLB has LRU replacement policy
L1I has LRU replacement policy
L1D has LRU replacement policy
L2C has LRU replacement policy
LLC has LRU replacement policy
Heartbeat CPU 0 instructions: 10000002 cycles: 3555262 heartbeat IPC: 2.81273 cumulative IPC: 2.81273 (Simulation time: 0 hr 4 min 5 sec) 
Heartbeat CPU 0 instructions: 20000000 cycles: 6794135 heartbeat IPC: 3.08749 cumulative IPC: 2.94372 (Simulation time: 0 hr 7 min 38 sec) 
Heartbeat CPU 0 instructions: 30000001 cycles: 10023738 heartbeat IPC: 3.09636 cumulative IPC: 2.9929 (Simulation time: 0 hr 11 min 10 sec) 
Heartbeat CPU 0 instructions: 40000000 cycles: 13254527 heartbeat IPC: 3.09522 cumulative IPC: 3.01784 (Simulation time: 0 hr 14 min 38 sec) 
Heartbeat CPU 0 instructions: 50000000 cycles: 16475688 heartbeat IPC: 3.10447 cumulative IPC: 3.03477 (Simulation time: 0 hr 18 min 7 sec) 

Warmup complete CPU 0 instructions: 50000004 cycles: 16475689 (Simulation time: 0 hr 18 min 7 sec) 

Heartbeat CPU 0 instructions: 60000000 cycles: 41848824 heartbeat IPC: 0.394118 cumulative IPC: 0.394117 (Simulation time: 0 hr 19 min 8 sec) 
Heartbeat CPU 0 instructions: 70000000 cycles: 68873117 heartbeat IPC: 0.370037 cumulative IPC: 0.381698 (Simulation time: 0 hr 20 min 11 sec) 
Heartbeat CPU 0 instructions: 80000000 cycles: 95205905 heartbeat IPC: 0.379755 cumulative IPC: 0.381048 (Simulation time: 0 hr 21 min 14 sec) 
Heartbeat CPU 0 instructions: 90000002 cycles: 122071626 heartbeat IPC: 0.372222 cumulative IPC: 0.378802 (Simulation time: 0 hr 22 min 18 sec) 
Heartbeat CPU 0 instructions: 100000000 cycles: 147069732 heartbeat IPC: 0.40003 cumulative IPC: 0.382866 (Simulation time: 0 hr 23 min 19 sec) 
Finished CPU 0 instructions: 50000000 cycles: 130594051 cumulative IPC: 0.382866 (Simulation time: 0 hr 23 min 19 sec) 

ChampSim completed all CPUs

Region of Interest Statistics

CPU 0 cumulative IPC: 0.382866 instructions: 50000000 cycles: 130594051
ITLB TOTAL     ACCESS:    8597352  HIT:    8597352  MISS:          0  HIT %:        100  MISS %:          0   MPKI: 0
ITLB LOAD TRANSLATION ACCESS:    8597352  HIT:    8597352  MISS:          0  HIT %:        100  MISS %:          0   MPKI: 0
ITLB PREFETCH  REQUESTED:          0  ISSUED:          0  USEFUL:          0  USELESS:          0
ITLB USEFUL LOAD PREFETCHES:          0 PREFETCH ISSUED TO LOWER LEVEL:          0  ACCURACY: -nan
ITLB TIMELY PREFETCHES:          0 LATE PREFETCHES: 0 DROPPED PREFETCHES: 0
ITLB PREFETCHES SAME FILL-ORIGIN LEVEL: 0 DIFFERENT FILL-ORIGIN LEVEL: 0
ITLB AVERAGE MISS LATENCY: -nan cycles
ITLB RQ	ACCESS:    9609909	FORWARD:          0	MERGED:    1012557	TO_CACHE:    8597352

DTLB TOTAL     ACCESS:    9728788  HIT:    9454919  MISS:     273869  HIT %:     97.185  MISS %:    2.81504   MPKI: 5.47738
DTLB LOAD TRANSLATION ACCESS:    9728788  HIT:    9454919  MISS:     273869  HIT %:     97.185  MISS %:    2.81504   MPKI: 5.47738
DTLB PREFETCH  REQUESTED:          0  ISSUED:          0  USEFUL:          0  USELESS:          0
DTLB USEFUL LOAD PREFETCHES:          0 PREFETCH ISSUED TO LOWER LEVEL:          0  ACCURACY: -nan
DTLB TIMELY PREFETCHES:          0 LATE PREFETCHES: 0 DROPPED PREFETCHES: 0
DTLB PREFETCHES SAME FILL-ORIGIN LEVEL: 0 DIFFERENT FILL-ORIGIN LEVEL: 0
DTLB AVERAGE MISS LATENCY: 20.1706 cycles
DTLB RQ	ACCESS:   11011015	FORWARD:          0	MERGED:    1231482	TO_CACHE:    9779533

STLB TOTAL     ACCESS:    2226988  HIT:    2184377  MISS:      42611  HIT %:    98.0866  MISS %:    1.91339   MPKI: 0.85222
STLB LOAD TRANSLATION ACCESS:     273869  HIT:     241798  MISS:      32071  HIT %:    88.2897  MISS %:    11.7103   MPKI: 0.64142
STLB TRANSLATION FROM L1D PREFETCHER ACCESS:    1953119  HIT:    1942579  MISS:      10540  HIT %:    99.4604  MISS %:    0.53965   MPKI: 0.2108
STLB PREFETCH  REQUESTED:          0  ISSUED:          0  USEFUL:      10286  USELESS:        265
STLB USEFUL LOAD PREFETCHES:      10286 PREFETCH ISSUED TO LOWER LEVEL:          0  ACCURACY: inf
STLB TIMELY PREFETCHES:      10286 LATE PREFETCHES: 743 DROPPED PREFETCHES: 0
STLB PREFETCHES SAME FILL-ORIGIN LEVEL: 0 DIFFERENT FILL-ORIGIN LEVEL: 0
STLB AVERAGE MISS LATENCY: 95.2197 cycles
STLB RQ	ACCESS:    3023477	FORWARD:          0	MERGED:     795659	TO_CACHE:    2227818

STLB Hit, L1D data hit: 0
STLB Hit, L2C data hit: 0
STLB Hit, LLC data hit: 0
STLB Hit, LLC data miss: 0
STLB STLB hints to L2: 0
L1D TOTAL     ACCESS:   12317205  HIT:    8828121  MISS:    3489084  HIT %:    71.6731  MISS %:    28.3269   MPKI: 69.7817
L1D LOAD      ACCESS:    7815769  HIT:    6375557  MISS:    1440212  HIT %:     81.573  MISS %:     18.427   MPKI: 28.8042
L1D RFO       ACCESS:    2175155  HIT:    1879094  MISS:     296061  HIT %:     86.389  MISS %:     13.611   MPKI: 5.92122
L1D PREFETCH  ACCESS:    2326281  HIT:     573470  MISS:    1752811  HIT %:    24.6518  MISS %:    75.3482   MPKI: 35.0562
AGUS PREFETCH L1 MISS: 0
L1D PREFETCH  REQUESTED:    5581067  ISSUED:    5500822  USEFUL:     860685  USELESS:     892187
L1D USEFUL LOAD PREFETCHES:     860685 PREFETCH ISSUED TO LOWER LEVEL:    1929280  ACCURACY: 44.6117
L1D TIMELY PREFETCHES:     860685 LATE PREFETCHES: 176466 DROPPED PREFETCHES: 0
L1D PREFETCHES SAME FILL-ORIGIN LEVEL: 1929280 DIFFERENT FILL-ORIGIN LEVEL: 0
L1D AVERAGE MISS LATENCY: 168.295 cycles
L1D RQ	ACCESS:   14859483	FORWARD:          0	MERGED:    6885346	TO_CACHE:    7969065
L1D WQ	ACCESS:    3057587	FORWARD:       5445	MERGED:      15637	TO_CACHE:    3041950
L1D PQ	ACCESS:    2751214	FORWARD:          0	MERGED:       1233	TO_CACHE:    2749608

L1D UNIQUE REGIONS ACCESSED: 0
L1D REGIONS CONFLICTS: 0
L1D Cross Page Prefetch Requests: 182134
L1D Same Page Prefetch Requests: 5423490
L1D ROI Sum of L1D PQ occupancy: 51342568
L1D PREFETCHES PUSHED FROM L2C: 0
L1I TOTAL     ACCESS:    9609874  HIT:    9609764  MISS:        110  HIT %:    99.9989  MISS %: 0.00114466   MPKI: 0.0022
L1I LOAD      ACCESS:    9609874  HIT:    9609764  MISS:        110  HIT %:    99.9989  MISS %: 0.00114466   MPKI: 0.0022
L1I PREFETCH  REQUESTED:          0  ISSUED:          0  USEFUL:          0  USELESS:          0
L1I USEFUL LOAD PREFETCHES:          0 PREFETCH ISSUED TO LOWER LEVEL:          0  ACCURACY: -nan
L1I TIMELY PREFETCHES:          0 LATE PREFETCHES: 0 DROPPED PREFETCHES: 0
L1I PREFETCHES SAME FILL-ORIGIN LEVEL: 0 DIFFERENT FILL-ORIGIN LEVEL: 0
L1I AVERAGE MISS LATENCY: 229.036 cycles
L1I RQ	ACCESS:   13877240	FORWARD:          0	MERGED:    4267331	TO_CACHE:    9609909

BTB TOTAL     ACCESS:    6809348  HIT:    6808760  MISS:        588  HIT %:    99.9914  MISS %: 0.00863519   MPKI: 0.01176
BTB BRANCH_DIRECT_JUMP	ACCESS:      51581  HIT:      51508  MISS:         73
BTB BRANCH_INDIRECT	ACCESS:         18  HIT:         11  MISS:          7
BTB BRANCH_CONDITIONAL	ACCESS:    6754143  HIT:    6753939  MISS:        204
BTB BRANCH_DIRECT_CALL	ACCESS:       1703  HIT:       1632  MISS:         71
BTB BRANCH_INDIRECT_CALL	ACCESS:        102  HIT:         81  MISS:         21
BTB BRANCH_RETURN	ACCESS:       1801  HIT:       1589  MISS:        212
BTB BRANCH_OTHER ACCESS:          0  HIT:          0  MISS:          0

L2C TOTAL     ACCESS:    4610401  HIT:    2048090  MISS:    2562311  HIT %:    44.4233  MISS %:    55.5767   MPKI: 51.2462
L2C LOAD      ACCESS:    1263646  HIT:     461047  MISS:     802599  HIT %:    36.4855  MISS %:    63.5145   MPKI: 16.052
L2C DATA LOAD MPKI: 16.0498
L2C INSTRUCTION LOAD MPKI: 0.0022
L2C RFO       ACCESS:     296053  HIT:      27329  MISS:     268724  HIT %:    9.23112  MISS %:    90.7689   MPKI: 5.37448
L2C PREFETCH  ACCESS:    1929259  HIT:     449742  MISS:    1479517  HIT %:    23.3116  MISS %:    76.6884   MPKI: 29.5903
AGUS PREFETCH L1 MISS: 0
L2C DATA PREFETCH MPKI: 29.5903
L2C INSTRUCTION PREFETCH MPKI: 0
L2C WRITEBACK ACCESS:    1078604  HIT:    1078565  MISS:         39  HIT %:    99.9964  MISS %: 0.00361578   MPKI: 0.00078
L2C LOAD TRANSLATION ACCESS:      31517  HIT:      23884  MISS:       7633  HIT %:    75.7813  MISS %:    24.2187   MPKI: 0.15266
L2C TRANSLATION FROM L1D PREFETCHER ACCESS:      11322  HIT:       7523  MISS:       3799  HIT %:    66.4459  MISS %:    33.5541   MPKI: 0.07598
L2C PREFETCH  REQUESTED:          0  ISSUED:          0  USEFUL:     114514  USELESS:    1376027
L2C USEFUL LOAD PREFETCHES:     114514 PREFETCH ISSUED TO LOWER LEVEL:    1479516  ACCURACY: 7.73996
L2C TIMELY PREFETCHES:     114514 LATE PREFETCHES: 0 DROPPED PREFETCHES: 0
L2C PREFETCHES SAME FILL-ORIGIN LEVEL: 0 DIFFERENT FILL-ORIGIN LEVEL: 0
L2C AVERAGE MISS LATENCY: 209.531 cycles
L2C RQ	ACCESS:    1602756	FORWARD:          0	MERGED:          0	TO_CACHE:    1602542
L2C WQ	ACCESS:    1078605	FORWARD:        236	MERGED:          0	TO_CACHE:    1078605
L2C PQ	ACCESS:    1929280	FORWARD:          0	MERGED:          0	TO_CACHE:    1929258

L2C Instructions Evicting Data 110
L2C Translations Evicting Data 11322
L2C Data Evicting Data 2539306
L2C Instructions Evicting Instructions 0
L2C Translations Evicting Instructions 0
L2C Data Evicting Instructions 107
L2C Instructions Evicting Translations 0
L2C Translations Evicting Translations 110
L2C Data Evicting Translations 11317
L2C Dense regions hint from L2: 0
PSCL5 TOTAL     ACCESS:      42611  HIT:      42611  MISS:          0  HIT %:        100  MISS %:          0   MPKI: 0
PSCL5 LOAD TRANSLATION ACCESS:      31328  HIT:      31328  MISS:          0  HIT %:        100  MISS %:          0   MPKI: 0
PSCL5 TRANSLATION FROM L1D PREFETCHER ACCESS:      11283  HIT:      11283  MISS:          0  HIT %:        100  MISS %:          0   MPKI: 0
PSCL5 PREFETCH  REQUESTED:          0  ISSUED:          0  USEFUL:          0  USELESS:          0
PSCL5 USEFUL LOAD PREFETCHES:          0 PREFETCH ISSUED TO LOWER LEVEL:          0  ACCURACY: -nan
PSCL5 TIMELY PREFETCHES:          0 LATE PREFETCHES: 0 DROPPED PREFETCHES: 0
PSCL5 PREFETCHES SAME FILL-ORIGIN LEVEL: 0 DIFFERENT FILL-ORIGIN LEVEL: 0

PSCL4 TOTAL     ACCESS:      42611  HIT:      42611  MISS:          0  HIT %:        100  MISS %:          0   MPKI: 0
PSCL4 LOAD TRANSLATION ACCESS:      31328  HIT:      31328  MISS:          0  HIT %:        100  MISS %:          0   MPKI: 0
PSCL4 TRANSLATION FROM L1D PREFETCHER ACCESS:      11283  HIT:      11283  MISS:          0  HIT %:        100  MISS %:          0   MPKI: 0
PSCL4 PREFETCH  REQUESTED:          0  ISSUED:          0  USEFUL:          0  USELESS:          0
PSCL4 USEFUL LOAD PREFETCHES:          0 PREFETCH ISSUED TO LOWER LEVEL:          0  ACCURACY: -nan
PSCL4 TIMELY PREFETCHES:          0 LATE PREFETCHES: 0 DROPPED PREFETCHES: 0
PSCL4 PREFETCHES SAME FILL-ORIGIN LEVEL: 0 DIFFERENT FILL-ORIGIN LEVEL: 0

PSCL3 TOTAL     ACCESS:      42611  HIT:      42611  MISS:          0  HIT %:        100  MISS %:          0   MPKI: 0
PSCL3 LOAD TRANSLATION ACCESS:      31328  HIT:      31328  MISS:          0  HIT %:        100  MISS %:          0   MPKI: 0
PSCL3 TRANSLATION FROM L1D PREFETCHER ACCESS:      11283  HIT:      11283  MISS:          0  HIT %:        100  MISS %:          0   MPKI: 0
PSCL3 PREFETCH  REQUESTED:          0  ISSUED:          0  USEFUL:          0  USELESS:          0
PSCL3 USEFUL LOAD PREFETCHES:          0 PREFETCH ISSUED TO LOWER LEVEL:          0  ACCURACY: -nan
PSCL3 TIMELY PREFETCHES:          0 LATE PREFETCHES: 0 DROPPED PREFETCHES: 0
PSCL3 PREFETCHES SAME FILL-ORIGIN LEVEL: 0 DIFFERENT FILL-ORIGIN LEVEL: 0

PSCL2 TOTAL     ACCESS:      42611  HIT:      42379  MISS:        232  HIT %:    99.4555  MISS %:    0.54446   MPKI: 0.00464
PSCL2 LOAD TRANSLATION ACCESS:      31367  HIT:      31135  MISS:        232  HIT %:    99.2604  MISS %:   0.739631   MPKI: 0.00464
PSCL2 TRANSLATION FROM L1D PREFETCHER ACCESS:      11244  HIT:      11244  MISS:          0  HIT %:        100  MISS %:          0   MPKI: 0
PSCL2 PREFETCH  REQUESTED:          0  ISSUED:          0  USEFUL:          0  USELESS:          0
PSCL2 USEFUL LOAD PREFETCHES:          0 PREFETCH ISSUED TO LOWER LEVEL:          0  ACCURACY: -nan
PSCL2 TIMELY PREFETCHES:          0 LATE PREFETCHES: 0 DROPPED PREFETCHES: 0
PSCL2 PREFETCHES SAME FILL-ORIGIN LEVEL: 0 DIFFERENT FILL-ORIGIN LEVEL: 0

LLC TOTAL     ACCESS:    3346189  HIT:    1212665  MISS:    2133524  HIT %:    36.2402  MISS %:    63.7598   MPKI: 42.6705
LLC LOAD      ACCESS:     802592  HIT:     140902  MISS:     661690  HIT %:    17.5559  MISS %:    82.4441   MPKI: 13.2338
LLC RFO       ACCESS:     268723  HIT:      67313  MISS:     201410  HIT %:    25.0492  MISS %:    74.9508   MPKI: 4.0282
LLC PREFETCH  ACCESS:    1479508  HIT:     219179  MISS:    1260329  HIT %:    14.8143  MISS %:    85.1857   MPKI: 25.2066
AGUS PREFETCH L1 MISS: 0
LLC WRITEBACK ACCESS:     783934  HIT:     783741  MISS:        193  HIT %:    99.9754  MISS %:  0.0246194   MPKI: 0.00386
LLC LOAD TRANSLATION ACCESS:       7633  HIT:        900  MISS:       6733  HIT %:    11.7909  MISS %:    88.2091   MPKI: 0.13466
LLC TRANSLATION FROM L1D PREFETCHER ACCESS:       3799  HIT:        630  MISS:       3169  HIT %:    16.5833  MISS %:    83.4167   MPKI: 0.06338
LLC PREFETCH  REQUESTED:          0  ISSUED:          0  USEFUL:      59990  USELESS:    1219251
LLC USEFUL LOAD PREFETCHES:      59990 PREFETCH ISSUED TO LOWER LEVEL:    1260328  ACCURACY: 4.75987
LLC TIMELY PREFETCHES:      59990 LATE PREFETCHES: 0 DROPPED PREFETCHES: 0
LLC PREFETCHES SAME FILL-ORIGIN LEVEL: 0 DIFFERENT FILL-ORIGIN LEVEL: 0
LLC AVERAGE MISS LATENCY: 215.609 cycles
LLC RQ	ACCESS:    1082759	FORWARD:          0	MERGED:          0	TO_CACHE:    1082751
LLC WQ	ACCESS:     783935	FORWARD:         17	MERGED:          0	TO_CACHE:     783935
LLC PQ	ACCESS:    1479516	FORWARD:          0	MERGED:          0	TO_CACHE:    1479507

LLC Dense regions hint to LLC: 0

RAW hits: 149088
Loads Generated: 15008574
Loads sent to L1D: 14859483
Stores Generated: 3057587
Stores sent to L1D: 3057587
Major fault: 0 Minor fault: 7959
Allocated PAGES: 7959

stream: 
stream:times selected: 5542654
stream:pref_filled: 2038931
stream:pref_useful: 618768
stream:pref_late: 140430
stream:misses: 393388
stream:misses_by_poll: 0

CS: 
CS:times selected: 1642283
CS:pref_filled: 1477666
CS:pref_useful: 1205663
CS:pref_late: 76740
CS:misses: 13618
CS:misses_by_poll: 4998

CPLX: 
CPLX:times selected: 3879530
CPLX:pref_filled: 96428
CPLX:pref_useful: 36575
CPLX:pref_late: 6761
CPLX:misses: 1987286
CPLX:misses_by_poll: 119

ISB: 
ISB:times selected:1522744
ISB:pref_filled: 163050
ISB:pref_useful: 76098
ISB:pref_late: 7939
ISB:misses: 267477
ISB:misses_by_poll: 485

NL_L1: 
NL:times selected: 29698
NL:pref_filled: 14772
NL:pref_useful: 3820
NL:pref_late: 403
NL:misses: 20005
NL:misses_by_poll: 1

total selections: 12616909
total_filled: 1752811
total_useful: 860685
total_late: 241054
total_polluted: 5603
total_misses_after_warmup: 1593507
conflicts: 171908

test: 1643857

DRAM Statistics
 CHANNEL 0
 RQ ROW_BUFFER_HIT:     545998  ROW_BUFFER_MISS:    1587129
 DBUS_CONGESTED:        818
 WQ ROW_BUFFER_HIT:     198429  ROW_BUFFER_MISS:     450863  FULL:          0

 AVG_CONGESTED_CYCLE: 5
 All warmup complete: 2
Channel 0 Bank busy for read cycles: 0
Channel 0 Bank busy for write cycles: 0
Channel 0
Rank 0
0banks busy for read cycles: 17575557
0banks busy for write cycles: 27347
1banks busy for read cycles: 25264997
1banks busy for write cycles: 4259385
2banks busy for read cycles: 17546633
2banks busy for write cycles: 2265110
3banks busy for read cycles: 12175944
3banks busy for write cycles: 1426683
4banks busy for read cycles: 9953466
4banks busy for write cycles: 995225
5banks busy for read cycles: 7512682
5banks busy for write cycles: 736959
6banks busy for read cycles: 6123072
6banks busy for write cycles: 695496
7banks busy for read cycles: 4604611
7banks busy for write cycles: 1791547
8banks busy for read cycles: 3374272
8banks busy for write cycles: 14265066

CPU 0 Branch Prediction Accuracy: 94.9774% MPKI: 9.10314 Average ROB Occupancy at Mispredict: 45.1841
Branch types
NOT_BRANCH: 40937845 81.8757%
BRANCH_DIRECT_JUMP: 51581 0.103162%
BRANCH_INDIRECT: 18 3.6e-05%
BRANCH_CONDITIONAL: 9006978 18.014%
BRANCH_DIRECT_CALL: 1703 0.003406%
BRANCH_INDIRECT_CALL: 102 0.000204%
BRANCH_RETURN: 1801 0.003602%
BRANCH_OTHER: 0 0%

DRAM PAGES: 1048576
Allocated PAGES: 7959
