
*** ChampSim Multicore Out-of-Order Simulator ***

Warmup Instructions: 50000000
Simulation Instructions: 50000000
Number of CPUs: 1
LLC sets: 2048
LLC ways: 16
Off-chip DRAM Size: 4096 MB Channels: 1 Width: 64-bit Data Rate: 6400 MT/s
CPU 0 runs traces/SPEC-CPU2017/450.soplex-247B.champsimtrace.xz
.xz
CPU 0 Bimodal branch predictor
BTB has LRU replacement policy
ITLB has LRU replacement policy
DTLB has LRU replacement policy
STLB has LRU replacement policy
L1I has LRU replacement policy
L1D has LRU replacement policy
L2C has LRU replacement policy
LLC has LRU replacement policy
Heartbeat CPU 0 instructions: 10000002 cycles: 3555388 heartbeat IPC: 2.81263 cumulative IPC: 2.81263 (Simulation time: 0 hr 4 min 5 sec) 
Heartbeat CPU 0 instructions: 20000000 cycles: 6795753 heartbeat IPC: 3.08607 cumulative IPC: 2.94301 (Simulation time: 0 hr 7 min 37 sec) 
Heartbeat CPU 0 instructions: 30000001 cycles: 10027877 heartbeat IPC: 3.09394 cumulative IPC: 2.99166 (Simulation time: 0 hr 11 min 8 sec) 
Heartbeat CPU 0 instructions: 40000000 cycles: 13260557 heartbeat IPC: 3.09341 cumulative IPC: 3.01646 (Simulation time: 0 hr 14 min 35 sec) 
Heartbeat CPU 0 instructions: 50000000 cycles: 16484476 heartbeat IPC: 3.10181 cumulative IPC: 3.03316 (Simulation time: 0 hr 18 min 3 sec) 

Warmup complete CPU 0 instructions: 50000004 cycles: 16484477 (Simulation time: 0 hr 18 min 3 sec) 

Heartbeat CPU 0 instructions: 60000000 cycles: 41999512 heartbeat IPC: 0.391926 cumulative IPC: 0.391926 (Simulation time: 0 hr 19 min 3 sec) 
Heartbeat CPU 0 instructions: 70000000 cycles: 69184495 heartbeat IPC: 0.36785 cumulative IPC: 0.379506 (Simulation time: 0 hr 20 min 5 sec) 
Heartbeat CPU 0 instructions: 80000000 cycles: 95693023 heartbeat IPC: 0.377237 cumulative IPC: 0.378747 (Simulation time: 0 hr 21 min 7 sec) 
Heartbeat CPU 0 instructions: 90000002 cycles: 122694899 heartbeat IPC: 0.370345 cumulative IPC: 0.376611 (Simulation time: 0 hr 22 min 10 sec) 
Heartbeat CPU 0 instructions: 100000000 cycles: 147864917 heartbeat IPC: 0.397298 cumulative IPC: 0.380574 (Simulation time: 0 hr 23 min 10 sec) 
Finished CPU 0 instructions: 50000000 cycles: 131380448 cumulative IPC: 0.380574 (Simulation time: 0 hr 23 min 10 sec) 

ChampSim completed all CPUs

Region of Interest Statistics

CPU 0 cumulative IPC: 0.380574 instructions: 50000000 cycles: 131380448
ITLB TOTAL     ACCESS:    8599443  HIT:    8599443  MISS:          0  HIT %:        100  MISS %:          0   MPKI: 0
ITLB LOAD TRANSLATION ACCESS:    8599443  HIT:    8599443  MISS:          0  HIT %:        100  MISS %:          0   MPKI: 0
ITLB PREFETCH  REQUESTED:          0  ISSUED:          0  USEFUL:          0  USELESS:          0
ITLB USEFUL LOAD PREFETCHES:          0 PREFETCH ISSUED TO LOWER LEVEL:          0  ACCURACY: -nan
ITLB TIMELY PREFETCHES:          0 LATE PREFETCHES: 0 DROPPED PREFETCHES: 0
ITLB PREFETCHES SAME FILL-ORIGIN LEVEL: 0 DIFFERENT FILL-ORIGIN LEVEL: 0
ITLB AVERAGE MISS LATENCY: -nan cycles
ITLB RQ	ACCESS:    9611373	FORWARD:          0	MERGED:    1011930	TO_CACHE:    8599443

DTLB TOTAL     ACCESS:    9722951  HIT:    9449104  MISS:     273847  HIT %:    97.1835  MISS %:     2.8165   MPKI: 5.47694
DTLB LOAD TRANSLATION ACCESS:    9722951  HIT:    9449104  MISS:     273847  HIT %:    97.1835  MISS %:     2.8165   MPKI: 5.47694
DTLB PREFETCH  REQUESTED:          0  ISSUED:          0  USEFUL:          0  USELESS:          0
DTLB USEFUL LOAD PREFETCHES:          0 PREFETCH ISSUED TO LOWER LEVEL:          0  ACCURACY: -nan
DTLB TIMELY PREFETCHES:          0 LATE PREFETCHES: 0 DROPPED PREFETCHES: 0
DTLB PREFETCHES SAME FILL-ORIGIN LEVEL: 0 DIFFERENT FILL-ORIGIN LEVEL: 0
DTLB AVERAGE MISS LATENCY: 22.0421 cycles
DTLB RQ	ACCESS:   11008300	FORWARD:          0	MERGED:    1231931	TO_CACHE:    9776369

STLB TOTAL     ACCESS:    2147135  HIT:    2104856  MISS:      42279  HIT %:    98.0309  MISS %:    1.96909   MPKI: 0.84558
STLB LOAD TRANSLATION ACCESS:     273847  HIT:     236694  MISS:      37153  HIT %:    86.4329  MISS %:    13.5671   MPKI: 0.74306
STLB TRANSLATION FROM L1D PREFETCHER ACCESS:    1873288  HIT:    1868162  MISS:       5126  HIT %:    99.7264  MISS %:   0.273637   MPKI: 0.10252
STLB PREFETCH  REQUESTED:          0  ISSUED:          0  USEFUL:       5106  USELESS:         20
STLB USEFUL LOAD PREFETCHES:       5106 PREFETCH ISSUED TO LOWER LEVEL:          0  ACCURACY: inf
STLB TIMELY PREFETCHES:       5106 LATE PREFETCHES: 405 DROPPED PREFETCHES: 0
STLB PREFETCHES SAME FILL-ORIGIN LEVEL: 0 DIFFERENT FILL-ORIGIN LEVEL: 0
STLB AVERAGE MISS LATENCY: 91.5225 cycles
STLB RQ	ACCESS:    2932807	FORWARD:          0	MERGED:     784900	TO_CACHE:    2147907

STLB Hit, L1D data hit: 0
STLB Hit, L2C data hit: 0
STLB Hit, LLC data hit: 0
STLB Hit, LLC data miss: 0
STLB STLB hints to L2: 0
L1D TOTAL     ACCESS:   12229335  HIT:    8773194  MISS:    3456141  HIT %:    71.7389  MISS %:    28.2611   MPKI: 69.1228
L1D LOAD      ACCESS:    7815345  HIT:    6368340  MISS:    1447005  HIT %:    81.4851  MISS %:    18.5149   MPKI: 28.9401
L1D RFO       ACCESS:    2175423  HIT:    1879375  MISS:     296048  HIT %:    86.3912  MISS %:    13.6088   MPKI: 5.92096
L1D PREFETCH  ACCESS:    2238567  HIT:     525479  MISS:    1713088  HIT %:    23.4739  MISS %:    76.5261   MPKI: 34.2618
AGUS PREFETCH L1 MISS: 0
L1D PREFETCH  REQUESTED:    5392611  ISSUED:    5318761  USEFUL:     853923  USELESS:     859169
L1D USEFUL LOAD PREFETCHES:     853923 PREFETCH ISSUED TO LOWER LEVEL:    1886909  ACCURACY: 45.2551
L1D TIMELY PREFETCHES:     853923 LATE PREFETCHES: 173818 DROPPED PREFETCHES: 0
L1D PREFETCHES SAME FILL-ORIGIN LEVEL: 1886909 DIFFERENT FILL-ORIGIN LEVEL: 0
L1D AVERAGE MISS LATENCY: 168.321 cycles
L1D RQ	ACCESS:   14859496	FORWARD:          0	MERGED:    6888065	TO_CACHE:    7966392
L1D WQ	ACCESS:    3057587	FORWARD:       5410	MERGED:      15679	TO_CACHE:    3041908
L1D PQ	ACCESS:    2659801	FORWARD:          0	MERGED:        470	TO_CACHE:    2658960

L1D UNIQUE REGIONS ACCESSED: 0
L1D REGIONS CONFLICTS: 0
L1D Cross Page Prefetch Requests: 39305
L1D Same Page Prefetch Requests: 5387559
L1D ROI Sum of L1D PQ occupancy: 46075654
L1D PREFETCHES PUSHED FROM L2C: 0
L1I TOTAL     ACCESS:    9611338  HIT:    9611228  MISS:        110  HIT %:    99.9989  MISS %: 0.00114448   MPKI: 0.0022
L1I LOAD      ACCESS:    9611338  HIT:    9611228  MISS:        110  HIT %:    99.9989  MISS %: 0.00114448   MPKI: 0.0022
L1I PREFETCH  REQUESTED:          0  ISSUED:          0  USEFUL:          0  USELESS:          0
L1I USEFUL LOAD PREFETCHES:          0 PREFETCH ISSUED TO LOWER LEVEL:          0  ACCURACY: -nan
L1I TIMELY PREFETCHES:          0 LATE PREFETCHES: 0 DROPPED PREFETCHES: 0
L1I PREFETCHES SAME FILL-ORIGIN LEVEL: 0 DIFFERENT FILL-ORIGIN LEVEL: 0
L1I AVERAGE MISS LATENCY: 230.555 cycles
L1I RQ	ACCESS:   13880093	FORWARD:          0	MERGED:    4268720	TO_CACHE:    9611373

BTB TOTAL     ACCESS:    6809348  HIT:    6808760  MISS:        588  HIT %:    99.9914  MISS %: 0.00863519   MPKI: 0.01176
BTB BRANCH_DIRECT_JUMP	ACCESS:      51581  HIT:      51508  MISS:         73
BTB BRANCH_INDIRECT	ACCESS:         18  HIT:         11  MISS:          7
BTB BRANCH_CONDITIONAL	ACCESS:    6754143  HIT:    6753939  MISS:        204
BTB BRANCH_DIRECT_CALL	ACCESS:       1703  HIT:       1632  MISS:         71
BTB BRANCH_INDIRECT_CALL	ACCESS:        102  HIT:         81  MISS:         21
BTB BRANCH_RETURN	ACCESS:       1801  HIT:       1589  MISS:        212
BTB BRANCH_OTHER ACCESS:          0  HIT:          0  MISS:          0

L2C TOTAL     ACCESS:    4577157  HIT:    2021534  MISS:    2555623  HIT %:    44.1657  MISS %:    55.8343   MPKI: 51.1125
L2C LOAD      ACCESS:    1273093  HIT:     460273  MISS:     812820  HIT %:    36.1539  MISS %:    63.8461   MPKI: 16.2564
L2C DATA LOAD MPKI: 16.2542
L2C INSTRUCTION LOAD MPKI: 0.0022
L2C RFO       ACCESS:     296040  HIT:      27480  MISS:     268560  HIT %:    9.28253  MISS %:    90.7175   MPKI: 5.3712
L2C PREFETCH  ACCESS:    1886876  HIT:     423680  MISS:    1463196  HIT %:     22.454  MISS %:     77.546   MPKI: 29.2639
AGUS PREFETCH L1 MISS: 0
L2C DATA PREFETCH MPKI: 29.2639
L2C INSTRUCTION PREFETCH MPKI: 0
L2C WRITEBACK ACCESS:    1078641  HIT:    1078602  MISS:         39  HIT %:    99.9964  MISS %: 0.00361566   MPKI: 0.00078
L2C LOAD TRANSLATION ACCESS:      36971  HIT:      27096  MISS:       9875  HIT %:    73.2899  MISS %:    26.7101   MPKI: 0.1975
L2C TRANSLATION FROM L1D PREFETCHER ACCESS:       5536  HIT:       4403  MISS:       1133  HIT %:     79.534  MISS %:     20.466   MPKI: 0.02266
L2C PREFETCH  REQUESTED:          0  ISSUED:          0  USEFUL:     112107  USELESS:    1359421
L2C USEFUL LOAD PREFETCHES:     112107 PREFETCH ISSUED TO LOWER LEVEL:    1463195  ACCURACY: 7.66179
L2C TIMELY PREFETCHES:     112107 LATE PREFETCHES: 0 DROPPED PREFETCHES: 0
L2C PREFETCHES SAME FILL-ORIGIN LEVEL: 0 DIFFERENT FILL-ORIGIN LEVEL: 0
L2C AVERAGE MISS LATENCY: 208.091 cycles
L2C RQ	ACCESS:    1611852	FORWARD:          0	MERGED:          0	TO_CACHE:    1611644
L2C WQ	ACCESS:    1078642	FORWARD:        242	MERGED:          0	TO_CACHE:    1078642
L2C PQ	ACCESS:    1886909	FORWARD:          0	MERGED:          0	TO_CACHE:    1886875

L2C Instructions Evicting Data 110
L2C Translations Evicting Data 10920
L2C Data Evicting Data 2533440
L2C Instructions Evicting Instructions 0
L2C Translations Evicting Instructions 0
L2C Data Evicting Instructions 107
L2C Instructions Evicting Translations 0
L2C Translations Evicting Translations 88
L2C Data Evicting Translations 10919
L2C Dense regions hint from L2: 0
PSCL5 TOTAL     ACCESS:      42279  HIT:      42279  MISS:          0  HIT %:        100  MISS %:          0   MPKI: 0
PSCL5 LOAD TRANSLATION ACCESS:      36748  HIT:      36748  MISS:          0  HIT %:        100  MISS %:          0   MPKI: 0
PSCL5 TRANSLATION FROM L1D PREFETCHER ACCESS:       5531  HIT:       5531  MISS:          0  HIT %:        100  MISS %:          0   MPKI: 0
PSCL5 PREFETCH  REQUESTED:          0  ISSUED:          0  USEFUL:          0  USELESS:          0
PSCL5 USEFUL LOAD PREFETCHES:          0 PREFETCH ISSUED TO LOWER LEVEL:          0  ACCURACY: -nan
PSCL5 TIMELY PREFETCHES:          0 LATE PREFETCHES: 0 DROPPED PREFETCHES: 0
PSCL5 PREFETCHES SAME FILL-ORIGIN LEVEL: 0 DIFFERENT FILL-ORIGIN LEVEL: 0

PSCL4 TOTAL     ACCESS:      42279  HIT:      42279  MISS:          0  HIT %:        100  MISS %:          0   MPKI: 0
PSCL4 LOAD TRANSLATION ACCESS:      36748  HIT:      36748  MISS:          0  HIT %:        100  MISS %:          0   MPKI: 0
PSCL4 TRANSLATION FROM L1D PREFETCHER ACCESS:       5531  HIT:       5531  MISS:          0  HIT %:        100  MISS %:          0   MPKI: 0
PSCL4 PREFETCH  REQUESTED:          0  ISSUED:          0  USEFUL:          0  USELESS:          0
PSCL4 USEFUL LOAD PREFETCHES:          0 PREFETCH ISSUED TO LOWER LEVEL:          0  ACCURACY: -nan
PSCL4 TIMELY PREFETCHES:          0 LATE PREFETCHES: 0 DROPPED PREFETCHES: 0
PSCL4 PREFETCHES SAME FILL-ORIGIN LEVEL: 0 DIFFERENT FILL-ORIGIN LEVEL: 0

PSCL3 TOTAL     ACCESS:      42279  HIT:      42279  MISS:          0  HIT %:        100  MISS %:          0   MPKI: 0
PSCL3 LOAD TRANSLATION ACCESS:      36748  HIT:      36748  MISS:          0  HIT %:        100  MISS %:          0   MPKI: 0
PSCL3 TRANSLATION FROM L1D PREFETCHER ACCESS:       5531  HIT:       5531  MISS:          0  HIT %:        100  MISS %:          0   MPKI: 0
PSCL3 PREFETCH  REQUESTED:          0  ISSUED:          0  USEFUL:          0  USELESS:          0
PSCL3 USEFUL LOAD PREFETCHES:          0 PREFETCH ISSUED TO LOWER LEVEL:          0  ACCURACY: -nan
PSCL3 TIMELY PREFETCHES:          0 LATE PREFETCHES: 0 DROPPED PREFETCHES: 0
PSCL3 PREFETCHES SAME FILL-ORIGIN LEVEL: 0 DIFFERENT FILL-ORIGIN LEVEL: 0

PSCL2 TOTAL     ACCESS:      42279  HIT:      42047  MISS:        232  HIT %:    99.4513  MISS %:   0.548736   MPKI: 0.00464
PSCL2 LOAD TRANSLATION ACCESS:      36753  HIT:      36521  MISS:        232  HIT %:    99.3688  MISS %:   0.631241   MPKI: 0.00464
PSCL2 TRANSLATION FROM L1D PREFETCHER ACCESS:       5526  HIT:       5526  MISS:          0  HIT %:        100  MISS %:          0   MPKI: 0
PSCL2 PREFETCH  REQUESTED:          0  ISSUED:          0  USEFUL:          0  USELESS:          0
PSCL2 USEFUL LOAD PREFETCHES:          0 PREFETCH ISSUED TO LOWER LEVEL:          0  ACCURACY: -nan
PSCL2 TIMELY PREFETCHES:          0 LATE PREFETCHES: 0 DROPPED PREFETCHES: 0
PSCL2 PREFETCHES SAME FILL-ORIGIN LEVEL: 0 DIFFERENT FILL-ORIGIN LEVEL: 0

LLC TOTAL     ACCESS:    3339262  HIT:    1207576  MISS:    2131686  HIT %:     36.163  MISS %:     63.837   MPKI: 42.6337
LLC LOAD      ACCESS:     812807  HIT:     140883  MISS:     671924  HIT %:    17.3329  MISS %:    82.6671   MPKI: 13.4385
LLC RFO       ACCESS:     268560  HIT:      67185  MISS:     201375  HIT %:    25.0168  MISS %:    74.9832   MPKI: 4.0275
LLC PREFETCH  ACCESS:    1463186  HIT:     214688  MISS:    1248498  HIT %:    14.6726  MISS %:    85.3274   MPKI: 24.97
AGUS PREFETCH L1 MISS: 0
LLC WRITEBACK ACCESS:     783701  HIT:     783511  MISS:        190  HIT %:    99.9758  MISS %:  0.0242439   MPKI: 0.0038
LLC LOAD TRANSLATION ACCESS:       9875  HIT:       1194  MISS:       8681  HIT %:    12.0911  MISS %:    87.9089   MPKI: 0.17362
LLC TRANSLATION FROM L1D PREFETCHER ACCESS:       1133  HIT:        115  MISS:       1018  HIT %:      10.15  MISS %:      89.85   MPKI: 0.02036
LLC PREFETCH  REQUESTED:          0  ISSUED:          0  USEFUL:      59450  USELESS:    1205471
LLC USEFUL LOAD PREFETCHES:      59450 PREFETCH ISSUED TO LOWER LEVEL:    1248497  ACCURACY: 4.76173
LLC TIMELY PREFETCHES:      59450 LATE PREFETCHES: 0 DROPPED PREFETCHES: 0
LLC PREFETCHES SAME FILL-ORIGIN LEVEL: 0 DIFFERENT FILL-ORIGIN LEVEL: 0
LLC AVERAGE MISS LATENCY: 213.506 cycles
LLC RQ	ACCESS:    1092392	FORWARD:          0	MERGED:          0	TO_CACHE:    1092379
LLC WQ	ACCESS:     783702	FORWARD:         23	MERGED:          0	TO_CACHE:     783702
LLC PQ	ACCESS:    1463195	FORWARD:          0	MERGED:          0	TO_CACHE:    1463185

LLC Dense regions hint to LLC: 0

RAW hits: 149075
Loads Generated: 15008574
Loads sent to L1D: 14859496
Stores Generated: 3057587
Stores sent to L1D: 3057587
Major fault: 0 Minor fault: 7959
Allocated PAGES: 7959

stream: 
stream:times selected: 5540405
stream:pref_filled: 2042225
stream:pref_useful: 621770
stream:pref_late: 141616
stream:misses: 389673
stream:misses_by_poll: 0

CS: 
CS:times selected: 1641170
CS:pref_filled: 1522356
CS:pref_useful: 1247904
CS:pref_late: 77148
CS:misses: 278440
CS:misses_by_poll: 4904

CPLX: 
CPLX:times selected: 3878278
CPLX:pref_filled: 96480
CPLX:pref_useful: 36778
CPLX:pref_late: 6763
CPLX:misses: 1960136
CPLX:misses_by_poll: 141

ISB: 
ISB:times selected:114594
ISB:pref_filled: 29491
ISB:pref_useful: 13436
ISB:pref_late: 4369
ISB:misses: 62997
ISB:misses_by_poll: 6

NL_L1: 
NL:times selected: 19757
NL:pref_filled: 9567
NL:pref_useful: 2431
NL:pref_late: 223
NL:misses: 13125
NL:misses_by_poll: 0

total selections: 11194204
total_filled: 1713088
total_useful: 853923
total_late: 238461
total_polluted: 5051
total_misses_after_warmup: 1598051
conflicts: 171779

test: 1642340

DRAM Statistics
 CHANNEL 0
 RQ ROW_BUFFER_HIT:     539898  ROW_BUFFER_MISS:    1591391
 DBUS_CONGESTED:        923
 WQ ROW_BUFFER_HIT:     208873  ROW_BUFFER_MISS:     440427  FULL:          0

 AVG_CONGESTED_CYCLE: 5
 All warmup complete: 2
Channel 0 Bank busy for read cycles: 0
Channel 0 Bank busy for write cycles: 0
Channel 0
Rank 0
0banks busy for read cycles: 17315289
0banks busy for write cycles: 24525
1banks busy for read cycles: 26349371
1banks busy for write cycles: 3984843
2banks busy for read cycles: 17364838
2banks busy for write cycles: 2239487
3banks busy for read cycles: 12073178
3banks busy for write cycles: 1431633
4banks busy for read cycles: 10017377
4banks busy for write cycles: 1040535
5banks busy for read cycles: 7443150
5banks busy for write cycles: 807803
6banks busy for read cycles: 6013553
6banks busy for write cycles: 780026
7banks busy for read cycles: 4535500
7banks busy for write cycles: 1898541
8banks busy for read cycles: 3480321
8banks busy for write cycles: 14580479

CPU 0 Branch Prediction Accuracy: 94.9774% MPKI: 9.10314 Average ROB Occupancy at Mispredict: 45.1925
Branch types
NOT_BRANCH: 40937845 81.8757%
BRANCH_DIRECT_JUMP: 51581 0.103162%
BRANCH_INDIRECT: 18 3.6e-05%
BRANCH_CONDITIONAL: 9006978 18.014%
BRANCH_DIRECT_CALL: 1703 0.003406%
BRANCH_INDIRECT_CALL: 102 0.000204%
BRANCH_RETURN: 1801 0.003602%
BRANCH_OTHER: 0 0%

DRAM PAGES: 1048576
Allocated PAGES: 7959
