
*** ChampSim Multicore Out-of-Order Simulator ***

Warmup Instructions: 50000000
Simulation Instructions: 50000000
Number of CPUs: 1
LLC sets: 2048
LLC ways: 16
Off-chip DRAM Size: 4096 MB Channels: 1 Width: 64-bit Data Rate: 6400 MT/s
CPU 0 runs traces/SPEC-CPU2017/602.gcc_s-2226B.champsimtrace.xz
.xz
CPU 0 Bimodal branch predictor
BTB has LRU replacement policy
ITLB has LRU replacement policy
DTLB has LRU replacement policy
STLB has LRU replacement policy
L1I has LRU replacement policy
L1D has LRU replacement policy
L2C has LRU replacement policy
LLC has LRU replacement policy
Heartbeat CPU 0 instructions: 10000001 cycles: 3758649 heartbeat IPC: 2.66053 cumulative IPC: 2.66053 (Simulation time: 0 hr 6 min 24 sec) 
Heartbeat CPU 0 instructions: 20000000 cycles: 7518278 heartbeat IPC: 2.65984 cumulative IPC: 2.66018 (Simulation time: 0 hr 13 min 2 sec) 
Heartbeat CPU 0 instructions: 30000001 cycles: 11273131 heartbeat IPC: 2.66322 cumulative IPC: 2.6612 (Simulation time: 0 hr 19 min 47 sec) 
Heartbeat CPU 0 instructions: 40000000 cycles: 15024918 heartbeat IPC: 2.6654 cumulative IPC: 2.66224 (Simulation time: 0 hr 25 min 49 sec) 
Heartbeat CPU 0 instructions: 50000000 cycles: 18773402 heartbeat IPC: 2.66775 cumulative IPC: 2.66334 (Simulation time: 0 hr 30 min 27 sec) 

Warmup complete CPU 0 instructions: 50000004 cycles: 18773403 (Simulation time: 0 hr 30 min 27 sec) 

Heartbeat CPU 0 instructions: 60000000 cycles: 44644894 heartbeat IPC: 0.386526 cumulative IPC: 0.386526 (Simulation time: 0 hr 31 min 35 sec) 
Heartbeat CPU 0 instructions: 70000000 cycles: 70264400 heartbeat IPC: 0.390328 cumulative IPC: 0.388417 (Simulation time: 0 hr 32 min 42 sec) 
Heartbeat CPU 0 instructions: 80000000 cycles: 96083257 heartbeat IPC: 0.387314 cumulative IPC: 0.388049 (Simulation time: 0 hr 33 min 51 sec) 
Heartbeat CPU 0 instructions: 90000001 cycles: 121929115 heartbeat IPC: 0.386909 cumulative IPC: 0.387763 (Simulation time: 0 hr 34 min 59 sec) 
Heartbeat CPU 0 instructions: 100000000 cycles: 147637162 heartbeat IPC: 0.388983 cumulative IPC: 0.388007 (Simulation time: 0 hr 36 min 7 sec) 
Finished CPU 0 instructions: 50000001 cycles: 128863779 cumulative IPC: 0.388007 (Simulation time: 0 hr 36 min 7 sec) 

ChampSim completed all CPUs

Region of Interest Statistics

CPU 0 cumulative IPC: 0.388007 instructions: 50000001 cycles: 128863779
ITLB TOTAL     ACCESS:   11175581  HIT:   11175581  MISS:          0  HIT %:        100  MISS %:          0   MPKI: 0
ITLB LOAD TRANSLATION ACCESS:   11175581  HIT:   11175581  MISS:          0  HIT %:        100  MISS %:          0   MPKI: 0
ITLB PREFETCH  REQUESTED:          0  ISSUED:          0  USEFUL:          0  USELESS:          0
ITLB USEFUL LOAD PREFETCHES:          0 PREFETCH ISSUED TO LOWER LEVEL:          0  ACCURACY: -nan
ITLB TIMELY PREFETCHES:          0 LATE PREFETCHES: 0 DROPPED PREFETCHES: 0
ITLB PREFETCHES SAME FILL-ORIGIN LEVEL: 0 DIFFERENT FILL-ORIGIN LEVEL: 0
ITLB AVERAGE MISS LATENCY: -nan cycles
ITLB RQ	ACCESS:   11348434	FORWARD:          0	MERGED:     172854	TO_CACHE:   11175580

DTLB TOTAL     ACCESS:    7732131  HIT:    7663643  MISS:      68488  HIT %:    99.1142  MISS %:   0.885758   MPKI: 1.36976
DTLB LOAD TRANSLATION ACCESS:    7732131  HIT:    7663643  MISS:      68488  HIT %:    99.1142  MISS %:   0.885758   MPKI: 1.36976
DTLB PREFETCH  REQUESTED:          0  ISSUED:          0  USEFUL:          0  USELESS:          0
DTLB USEFUL LOAD PREFETCHES:          0 PREFETCH ISSUED TO LOWER LEVEL:          0  ACCURACY: -nan
DTLB TIMELY PREFETCHES:          0 LATE PREFETCHES: 0 DROPPED PREFETCHES: 0
DTLB PREFETCHES SAME FILL-ORIGIN LEVEL: 0 DIFFERENT FILL-ORIGIN LEVEL: 0
DTLB AVERAGE MISS LATENCY: 29.8262 cycles
DTLB RQ	ACCESS:    9096454	FORWARD:          0	MERGED:    1364242	TO_CACHE:    7732212

STLB TOTAL     ACCESS:    3723486  HIT:    3657449  MISS:      66037  HIT %:    98.2265  MISS %:    1.77353   MPKI: 1.32074
STLB LOAD TRANSLATION ACCESS:      68488  HIT:      56003  MISS:      12485  HIT %:    81.7705  MISS %:    18.2295   MPKI: 0.2497
STLB TRANSLATION FROM L1D PREFETCHER ACCESS:    3654998  HIT:    3601446  MISS:      53552  HIT %:    98.5348  MISS %:    1.46517   MPKI: 1.07104
STLB PREFETCH  REQUESTED:          0  ISSUED:          0  USEFUL:      53543  USELESS:          8
STLB USEFUL LOAD PREFETCHES:      53543 PREFETCH ISSUED TO LOWER LEVEL:          0  ACCURACY: inf
STLB TIMELY PREFETCHES:      53543 LATE PREFETCHES: 4658 DROPPED PREFETCHES: 0
STLB PREFETCHES SAME FILL-ORIGIN LEVEL: 0 DIFFERENT FILL-ORIGIN LEVEL: 0
STLB AVERAGE MISS LATENCY: 66.4427 cycles
STLB RQ	ACCESS:    5201480	FORWARD:          0	MERGED:    1473227	TO_CACHE:    3728253

STLB Hit, L1D data hit: 0
STLB Hit, L2C data hit: 0
STLB Hit, LLC data hit: 0
STLB Hit, LLC data miss: 0
STLB STLB hints to L2: 0
L1D TOTAL     ACCESS:   13915489  HIT:   10127275  MISS:    3788214  HIT %:     72.777  MISS %:     27.223   MPKI: 75.7643
L1D LOAD      ACCESS:    8378672  HIT:    8158597  MISS:     220075  HIT %:    97.3734  MISS %:    2.62661   MPKI: 4.4015
L1D RFO       ACCESS:     654314  HIT:     653728  MISS:        586  HIT %:    99.9104  MISS %:  0.0895594   MPKI: 0.01172
L1D PREFETCH  ACCESS:    4882503  HIT:    1314950  MISS:    3567553  HIT %:    26.9319  MISS %:    73.0681   MPKI: 71.3511
AGUS PREFETCH L1 MISS: 0
L1D PREFETCH  REQUESTED:   10404814  ISSUED:   10314838  USEFUL:    3296553  USELESS:     271021
L1D USEFUL LOAD PREFETCHES:    3296553 PREFETCH ISSUED TO LOWER LEVEL:    3725524  ACCURACY: 88.4856
L1D TIMELY PREFETCHES:    3296553 LATE PREFETCHES: 157566 DROPPED PREFETCHES: 0
L1D PREFETCHES SAME FILL-ORIGIN LEVEL: 3725524 DIFFERENT FILL-ORIGIN LEVEL: 0
L1D AVERAGE MISS LATENCY: 120.536 cycles
L1D RQ	ACCESS:   17950666	FORWARD:          0	MERGED:    9507020	TO_CACHE:    8442136
L1D WQ	ACCESS:     726205	FORWARD:       1510	MERGED:      71887	TO_CACHE:     654318
L1D PQ	ACCESS:    5181846	FORWARD:          0	MERGED:      48854	TO_CACHE:    5132992

L1D UNIQUE REGIONS ACCESSED: 0
L1D REGIONS CONFLICTS: 0
L1D Cross Page Prefetch Requests: 703886
L1D Same Page Prefetch Requests: 10315875
L1D ROI Sum of L1D PQ occupancy: 77957035
L1D PREFETCHES PUSHED FROM L2C: 0
L1I TOTAL     ACCESS:   11348434  HIT:   11348434  MISS:          0  HIT %:        100  MISS %:          0   MPKI: 0
L1I LOAD      ACCESS:   11348434  HIT:   11348434  MISS:          0  HIT %:        100  MISS %:          0   MPKI: 0
L1I PREFETCH  REQUESTED:          0  ISSUED:          0  USEFUL:          0  USELESS:          0
L1I USEFUL LOAD PREFETCHES:          0 PREFETCH ISSUED TO LOWER LEVEL:          0  ACCURACY: -nan
L1I TIMELY PREFETCHES:          0 LATE PREFETCHES: 0 DROPPED PREFETCHES: 0
L1I PREFETCHES SAME FILL-ORIGIN LEVEL: 0 DIFFERENT FILL-ORIGIN LEVEL: 0
L1I AVERAGE MISS LATENCY: -nan cycles
L1I RQ	ACCESS:   16049944	FORWARD:          0	MERGED:    4701510	TO_CACHE:   11348434

BTB TOTAL     ACCESS:   11928195  HIT:   11928097  MISS:         98  HIT %:    99.9992  MISS %: 0.000821583   MPKI: 0.00196
BTB BRANCH_DIRECT_JUMP	ACCESS:     168848  HIT:     168822  MISS:         26
BTB BRANCH_INDIRECT	ACCESS:          0  HIT:          0  MISS:          0
BTB BRANCH_CONDITIONAL	ACCESS:   11592637  HIT:   11592588  MISS:         49
BTB BRANCH_DIRECT_CALL	ACCESS:      83355  HIT:      83345  MISS:         10
BTB BRANCH_INDIRECT_CALL	ACCESS:          0  HIT:          0  MISS:          0
BTB BRANCH_RETURN	ACCESS:      83355  HIT:      83342  MISS:         13
BTB BRANCH_OTHER ACCESS:          0  HIT:          0  MISS:          0

L2C TOTAL     ACCESS:    3861841  HIT:     199793  MISS:    3662048  HIT %:    5.17352  MISS %:    94.8265   MPKI: 73.241
L2C LOAD      ACCESS:      62486  HIT:      15706  MISS:      46780  HIT %:    25.1352  MISS %:    74.8648   MPKI: 0.9356
L2C DATA LOAD MPKI: 0.9356
L2C INSTRUCTION LOAD MPKI: 0
L2C RFO       ACCESS:        185  HIT:         96  MISS:         89  HIT %:    51.8919  MISS %:    48.1081   MPKI: 0.00178
L2C PREFETCH  ACCESS:    3725520  HIT:     126033  MISS:    3599487  HIT %:    3.38296  MISS %:     96.617   MPKI: 71.9897
AGUS PREFETCH L1 MISS: 0
L2C DATA PREFETCH MPKI: 71.9897
L2C INSTRUCTION PREFETCH MPKI: 0
L2C WRITEBACK ACCESS:       6090  HIT:       5917  MISS:        173  HIT %:    97.1593  MISS %:    2.84072   MPKI: 0.00346
L2C LOAD TRANSLATION ACCESS:       8300  HIT:       4913  MISS:       3387  HIT %:    59.1928  MISS %:    40.8072   MPKI: 0.06774
L2C TRANSLATION FROM L1D PREFETCHER ACCESS:      59260  HIT:      47128  MISS:      12132  HIT %:    79.5275  MISS %:    20.4725   MPKI: 0.24264
L2C PREFETCH  REQUESTED:          0  ISSUED:          0  USEFUL:      16736  USELESS:    3594789
L2C USEFUL LOAD PREFETCHES:      16736 PREFETCH ISSUED TO LOWER LEVEL:    3599491  ACCURACY: 0.464955
L2C TIMELY PREFETCHES:      16736 LATE PREFETCHES: 0 DROPPED PREFETCHES: 0
L2C PREFETCHES SAME FILL-ORIGIN LEVEL: 0 DIFFERENT FILL-ORIGIN LEVEL: 0
L2C AVERAGE MISS LATENCY: 109.794 cycles
L2C RQ	ACCESS:     130253	FORWARD:          0	MERGED:          0	TO_CACHE:     130230
L2C WQ	ACCESS:       6090	FORWARD:         23	MERGED:          0	TO_CACHE:       6090
L2C PQ	ACCESS:    3725524	FORWARD:          0	MERGED:          0	TO_CACHE:    3725524

L2C Instructions Evicting Data 0
L2C Translations Evicting Data 15476
L2C Data Evicting Data 3630888
L2C Instructions Evicting Instructions 0
L2C Translations Evicting Instructions 0
L2C Data Evicting Instructions 0
L2C Instructions Evicting Translations 0
L2C Translations Evicting Translations 43
L2C Data Evicting Translations 15468
L2C Dense regions hint from L2: 0
PSCL5 TOTAL     ACCESS:      66037  HIT:      66037  MISS:          0  HIT %:        100  MISS %:          0   MPKI: 0
PSCL5 LOAD TRANSLATION ACCESS:       7827  HIT:       7827  MISS:          0  HIT %:        100  MISS %:          0   MPKI: 0
PSCL5 TRANSLATION FROM L1D PREFETCHER ACCESS:      58210  HIT:      58210  MISS:          0  HIT %:        100  MISS %:          0   MPKI: 0
PSCL5 PREFETCH  REQUESTED:          0  ISSUED:          0  USEFUL:          0  USELESS:          0
PSCL5 USEFUL LOAD PREFETCHES:          0 PREFETCH ISSUED TO LOWER LEVEL:          0  ACCURACY: -nan
PSCL5 TIMELY PREFETCHES:          0 LATE PREFETCHES: 0 DROPPED PREFETCHES: 0
PSCL5 PREFETCHES SAME FILL-ORIGIN LEVEL: 0 DIFFERENT FILL-ORIGIN LEVEL: 0

PSCL4 TOTAL     ACCESS:      66037  HIT:      66037  MISS:          0  HIT %:        100  MISS %:          0   MPKI: 0
PSCL4 LOAD TRANSLATION ACCESS:       7827  HIT:       7827  MISS:          0  HIT %:        100  MISS %:          0   MPKI: 0
PSCL4 TRANSLATION FROM L1D PREFETCHER ACCESS:      58210  HIT:      58210  MISS:          0  HIT %:        100  MISS %:          0   MPKI: 0
PSCL4 PREFETCH  REQUESTED:          0  ISSUED:          0  USEFUL:          0  USELESS:          0
PSCL4 USEFUL LOAD PREFETCHES:          0 PREFETCH ISSUED TO LOWER LEVEL:          0  ACCURACY: -nan
PSCL4 TIMELY PREFETCHES:          0 LATE PREFETCHES: 0 DROPPED PREFETCHES: 0
PSCL4 PREFETCHES SAME FILL-ORIGIN LEVEL: 0 DIFFERENT FILL-ORIGIN LEVEL: 0

PSCL3 TOTAL     ACCESS:      66030  HIT:      66023  MISS:          7  HIT %:    99.9894  MISS %:  0.0106012   MPKI: 0.00014
PSCL3 LOAD TRANSLATION ACCESS:       7828  HIT:       7821  MISS:          7  HIT %:    99.9106  MISS %:  0.0894226   MPKI: 0.00014
PSCL3 TRANSLATION FROM L1D PREFETCHER ACCESS:      58202  HIT:      58202  MISS:          0  HIT %:        100  MISS %:          0   MPKI: 0
PSCL3 PREFETCH  REQUESTED:          0  ISSUED:          0  USEFUL:          0  USELESS:          0
PSCL3 USEFUL LOAD PREFETCHES:          0 PREFETCH ISSUED TO LOWER LEVEL:          0  ACCURACY: -nan
PSCL3 TIMELY PREFETCHES:          0 LATE PREFETCHES: 0 DROPPED PREFETCHES: 0
PSCL3 PREFETCHES SAME FILL-ORIGIN LEVEL: 0 DIFFERENT FILL-ORIGIN LEVEL: 0

PSCL2 TOTAL     ACCESS:      66037  HIT:      64520  MISS:       1517  HIT %:    97.7028  MISS %:     2.2972   MPKI: 0.03034
PSCL2 LOAD TRANSLATION ACCESS:       8874  HIT:       7357  MISS:       1517  HIT %:    82.9051  MISS %:    17.0949   MPKI: 0.03034
PSCL2 TRANSLATION FROM L1D PREFETCHER ACCESS:      57163  HIT:      57163  MISS:          0  HIT %:        100  MISS %:          0   MPKI: 0
PSCL2 PREFETCH  REQUESTED:          0  ISSUED:          0  USEFUL:          0  USELESS:          0
PSCL2 USEFUL LOAD PREFETCHES:          0 PREFETCH ISSUED TO LOWER LEVEL:          0  ACCURACY: -nan
PSCL2 TIMELY PREFETCHES:          0 LATE PREFETCHES: 0 DROPPED PREFETCHES: 0
PSCL2 PREFETCHES SAME FILL-ORIGIN LEVEL: 0 DIFFERENT FILL-ORIGIN LEVEL: 0

LLC TOTAL     ACCESS:    3667650  HIT:      24870  MISS:    3642780  HIT %:   0.678091  MISS %:    99.3219   MPKI: 72.8556
LLC LOAD      ACCESS:      46780  HIT:       1072  MISS:      45708  HIT %:    2.29158  MISS %:    97.7084   MPKI: 0.91416
LLC RFO       ACCESS:         89  HIT:          0  MISS:         89  HIT %:          0  MISS %:        100   MPKI: 0.00178
LLC PREFETCH  ACCESS:    3599487  HIT:      17329  MISS:    3582158  HIT %:    0.48143  MISS %:    99.5186   MPKI: 71.6432
AGUS PREFETCH L1 MISS: 0
LLC WRITEBACK ACCESS:       5775  HIT:       5684  MISS:         91  HIT %:    98.4242  MISS %:    1.57576   MPKI: 0.00182
LLC LOAD TRANSLATION ACCESS:       3387  HIT:        350  MISS:       3037  HIT %:    10.3336  MISS %:    89.6664   MPKI: 0.06074
LLC TRANSLATION FROM L1D PREFETCHER ACCESS:      12132  HIT:        435  MISS:      11697  HIT %:    3.58556  MISS %:    96.4144   MPKI: 0.23394
LLC PREFETCH  REQUESTED:          0  ISSUED:          0  USEFUL:        453  USELESS:    3592895
LLC USEFUL LOAD PREFETCHES:        453 PREFETCH ISSUED TO LOWER LEVEL:    3582161  ACCURACY: 0.012646
LLC TIMELY PREFETCHES:        453 LATE PREFETCHES: 0 DROPPED PREFETCHES: 0
LLC PREFETCHES SAME FILL-ORIGIN LEVEL: 0 DIFFERENT FILL-ORIGIN LEVEL: 0
LLC AVERAGE MISS LATENCY: 80.2168 cycles
LLC RQ	ACCESS:      62387	FORWARD:          0	MERGED:          0	TO_CACHE:      62387
LLC WQ	ACCESS:       5775	FORWARD:          0	MERGED:          0	TO_CACHE:       5775
LLC PQ	ACCESS:    3599491	FORWARD:          0	MERGED:          0	TO_CACHE:    3599491

LLC Dense regions hint to LLC: 0

RAW hits: 3936
Loads Generated: 17954602
Loads sent to L1D: 17950666
Stores Generated: 726205
Stores sent to L1D: 726205
Major fault: 0 Minor fault: 48887
Allocated PAGES: 48887

stream: 
stream:times selected: 11006797
stream:pref_filled: 6635581
stream:pref_useful: 6237626
stream:pref_late: 139097
stream:misses: 9115
stream:misses_by_poll: 0

CS: 
CS:times selected: 5862455
CS:pref_filled: 162010
CS:pref_useful: 144120
CS:pref_late: 10022
CS:misses: 47429
CS:misses_by_poll: 340

CPLX: 
CPLX:times selected: 5139792
CPLX:pref_filled: 389056
CPLX:pref_useful: 213534
CPLX:pref_late: 1750
CPLX:misses: 43177
CPLX:misses_by_poll: 858

ISB: 
ISB:times selected:8456298
ISB:pref_filled: 63352
ISB:pref_useful: 55841
ISB:pref_late: 37987
ISB:misses: 367754
ISB:misses_by_poll: 866

NL_L1: 
NL:times selected: 3394
NL:pref_filled: 1802
NL:pref_useful: 1788
NL:pref_late: 67
NL:misses: 238
NL:misses_by_poll: 0

total selections: 30468736
total_filled: 3567553
total_useful: 3296553
total_late: 192478
total_polluted: 2064
total_misses_after_warmup: 283538
conflicts: 62950

test: 2620187

DRAM Statistics
 CHANNEL 0
 RQ ROW_BUFFER_HIT:    3330780  ROW_BUFFER_MISS:     311910
 DBUS_CONGESTED:       2300
 WQ ROW_BUFFER_HIT:        911  ROW_BUFFER_MISS:       4786  FULL:          0

 AVG_CONGESTED_CYCLE: 4
 All warmup complete: 2
Channel 0 Bank busy for read cycles: 0
Channel 0 Bank busy for write cycles: 0
Channel 0
Rank 0
0banks busy for read cycles: 24115970
0banks busy for write cycles: 2784
1banks busy for read cycles: 30820446
1banks busy for write cycles: 1060817
2banks busy for read cycles: 52337949
2banks busy for write cycles: 439415
3banks busy for read cycles: 11746218
3banks busy for write cycles: 216616
4banks busy for read cycles: 2770516
4banks busy for write cycles: 85839
5banks busy for read cycles: 1291461
5banks busy for write cycles: 54932
6banks busy for read cycles: 2385020
6banks busy for write cycles: 16534
7banks busy for read cycles: 1329863
7banks busy for write cycles: 6640
8banks busy for read cycles: 180730
8banks busy for write cycles: 2030

CPU 0 Branch Prediction Accuracy: 99.1302% MPKI: 3.1024 Average ROB Occupancy at Mispredict: 96.8192
Branch types
NOT_BRANCH: 32166917 64.3338%
BRANCH_DIRECT_JUMP: 168848 0.337696%
BRANCH_INDIRECT: 0 0%
BRANCH_CONDITIONAL: 17497543 34.9951%
BRANCH_DIRECT_CALL: 83355 0.16671%
BRANCH_INDIRECT_CALL: 0 0%
BRANCH_RETURN: 83355 0.16671%
BRANCH_OTHER: 0 0%

DRAM PAGES: 1048576
Allocated PAGES: 48887
