
*** ChampSim Multicore Out-of-Order Simulator ***

Warmup Instructions: 50000000
Simulation Instructions: 50000000
Number of CPUs: 1
LLC sets: 2048
LLC ways: 16
Off-chip DRAM Size: 4096 MB Channels: 1 Width: 64-bit Data Rate: 6400 MT/s
CPU 0 runs traces/SPEC-CPU2017/623.xalancbmk_s-10B.champsimtrace.xz
.xz
CPU 0 Bimodal branch predictor
BTB has LRU replacement policy
ITLB has LRU replacement policy
DTLB has LRU replacement policy
STLB has LRU replacement policy
L1I has LRU replacement policy
L1D has LRU replacement policy
L2C has LRU replacement policy
LLC has LRU replacement policy
Heartbeat CPU 0 instructions: 10000001 cycles: 3230784 heartbeat IPC: 3.09522 cumulative IPC: 3.09522 (Simulation time: 0 hr 3 min 33 sec) 
Heartbeat CPU 0 instructions: 20000000 cycles: 6471080 heartbeat IPC: 3.08614 cumulative IPC: 3.09067 (Simulation time: 0 hr 7 min 9 sec) 
Heartbeat CPU 0 instructions: 30000001 cycles: 9727739 heartbeat IPC: 3.07063 cumulative IPC: 3.08396 (Simulation time: 0 hr 10 min 44 sec) 
Heartbeat CPU 0 instructions: 40000000 cycles: 12975556 heartbeat IPC: 3.07899 cumulative IPC: 3.08272 (Simulation time: 0 hr 14 min 17 sec) 
Heartbeat CPU 0 instructions: 50000000 cycles: 16271223 heartbeat IPC: 3.03429 cumulative IPC: 3.07291 (Simulation time: 0 hr 17 min 56 sec) 

Warmup complete CPU 0 instructions: 50000004 cycles: 16271224 (Simulation time: 0 hr 17 min 56 sec) 

Heartbeat CPU 0 instructions: 60000000 cycles: 54138143 heartbeat IPC: 0.264083 cumulative IPC: 0.264083 (Simulation time: 0 hr 18 min 50 sec) 
Heartbeat CPU 0 instructions: 70000000 cycles: 92350712 heartbeat IPC: 0.261694 cumulative IPC: 0.262883 (Simulation time: 0 hr 19 min 45 sec) 
Heartbeat CPU 0 instructions: 80000000 cycles: 131034349 heartbeat IPC: 0.258507 cumulative IPC: 0.261408 (Simulation time: 0 hr 20 min 39 sec) 
Heartbeat CPU 0 instructions: 90000000 cycles: 166903027 heartbeat IPC: 0.278795 cumulative IPC: 0.265548 (Simulation time: 0 hr 21 min 33 sec) 
Heartbeat CPU 0 instructions: 100000000 cycles: 205322923 heartbeat IPC: 0.260282 cumulative IPC: 0.264478 (Simulation time: 0 hr 22 min 27 sec) 
Finished CPU 0 instructions: 50000003 cycles: 189051733 cumulative IPC: 0.264478 (Simulation time: 0 hr 22 min 27 sec) 

ChampSim completed all CPUs

Region of Interest Statistics

CPU 0 cumulative IPC: 0.264478 instructions: 50000003 cycles: 189051733
ITLB TOTAL     ACCESS:    7900619  HIT:    7866710  MISS:      33909  HIT %:    99.5708  MISS %:   0.429194   MPKI: 0.67818
ITLB LOAD TRANSLATION ACCESS:    7900619  HIT:    7866710  MISS:      33909  HIT %:    99.5708  MISS %:   0.429194   MPKI: 0.67818
ITLB PREFETCH  REQUESTED:          0  ISSUED:          0  USEFUL:          0  USELESS:          0
ITLB USEFUL LOAD PREFETCHES:          0 PREFETCH ISSUED TO LOWER LEVEL:          0  ACCURACY: -nan
ITLB TIMELY PREFETCHES:          0 LATE PREFETCHES: 0 DROPPED PREFETCHES: 0
ITLB PREFETCHES SAME FILL-ORIGIN LEVEL: 0 DIFFERENT FILL-ORIGIN LEVEL: 0
ITLB AVERAGE MISS LATENCY: 18.1039 cycles
ITLB RQ	ACCESS:    9060730	FORWARD:          0	MERGED:    1151017	TO_CACHE:    7909713

DTLB TOTAL     ACCESS:   10291856  HIT:    9954536  MISS:     337320  HIT %:    96.7225  MISS %:    3.27754   MPKI: 6.7464
DTLB LOAD TRANSLATION ACCESS:   10291856  HIT:    9954536  MISS:     337320  HIT %:    96.7225  MISS %:    3.27754   MPKI: 6.7464
DTLB PREFETCH  REQUESTED:          0  ISSUED:          0  USEFUL:          0  USELESS:          0
DTLB USEFUL LOAD PREFETCHES:          0 PREFETCH ISSUED TO LOWER LEVEL:          0  ACCURACY: -nan
DTLB TIMELY PREFETCHES:          0 LATE PREFETCHES: 0 DROPPED PREFETCHES: 0
DTLB PREFETCHES SAME FILL-ORIGIN LEVEL: 0 DIFFERENT FILL-ORIGIN LEVEL: 0
DTLB AVERAGE MISS LATENCY: 67.8689 cycles
DTLB RQ	ACCESS:   11403291	FORWARD:          0	MERGED:    1053299	TO_CACHE:   10349992

STLB TOTAL     ACCESS:    1460188  HIT:    1205251  MISS:     254937  HIT %:    82.5408  MISS %:    17.4592   MPKI: 5.09874
STLB LOAD TRANSLATION ACCESS:     371229  HIT:     119733  MISS:     251496  HIT %:    32.2531  MISS %:    67.7469   MPKI: 5.02992
STLB TRANSLATION FROM L1D PREFETCHER ACCESS:    1088959  HIT:    1085518  MISS:       3441  HIT %:     99.684  MISS %:    0.31599   MPKI: 0.06882
STLB PREFETCH  REQUESTED:          0  ISSUED:          0  USEFUL:       3318  USELESS:        123
STLB USEFUL LOAD PREFETCHES:       3318 PREFETCH ISSUED TO LOWER LEVEL:          0  ACCURACY: inf
STLB TIMELY PREFETCHES:       3318 LATE PREFETCHES: 7 DROPPED PREFETCHES: 0
STLB PREFETCHES SAME FILL-ORIGIN LEVEL: 0 DIFFERENT FILL-ORIGIN LEVEL: 0
STLB AVERAGE MISS LATENCY: 80.627 cycles
STLB RQ	ACCESS:    1897738	FORWARD:          0	MERGED:     437441	TO_CACHE:    1460297

STLB Hit, L1D data hit: 0
STLB Hit, L2C data hit: 0
STLB Hit, LLC data hit: 0
STLB Hit, LLC data miss: 0
STLB STLB hints to L2: 0
L1D TOTAL     ACCESS:   12535250  HIT:   10495886  MISS:    2039364  HIT %:     83.731  MISS %:     16.269   MPKI: 40.7873
L1D LOAD      ACCESS:    8966298  HIT:    7819028  MISS:    1147270  HIT %:    87.2046  MISS %:    12.7954   MPKI: 22.9454
L1D RFO       ACCESS:    2332573  HIT:    2311063  MISS:      21510  HIT %:    99.0778  MISS %:   0.922158   MPKI: 0.4302
L1D PREFETCH  ACCESS:    1236379  HIT:     365795  MISS:     870584  HIT %:     29.586  MISS %:     70.414   MPKI: 17.4117
AGUS PREFETCH L1 MISS: 0
L1D PREFETCH  REQUESTED:    3059853  ISSUED:    3053590  USEFUL:     201045  USELESS:     669547
L1D USEFUL LOAD PREFETCHES:     201045 PREFETCH ISSUED TO LOWER LEVEL:     923345  ACCURACY: 21.7736
L1D TIMELY PREFETCHES:     201045 LATE PREFETCHES: 52209 DROPPED PREFETCHES: 0
L1D PREFETCHES SAME FILL-ORIGIN LEVEL: 923345 DIFFERENT FILL-ORIGIN LEVEL: 0
L1D AVERAGE MISS LATENCY: 137.748 cycles
L1D RQ	ACCESS:   14679147	FORWARD:          0	MERGED:    5609795	TO_CACHE:    9009668
L1D WQ	ACCESS:    2425925	FORWARD:      59687	MERGED:      32302	TO_CACHE:    2393623
L1D PQ	ACCESS:    1527081	FORWARD:          0	MERGED:        569	TO_CACHE:    1526509

L1D UNIQUE REGIONS ACCESSED: 0
L1D REGIONS CONFLICTS: 0
L1D Cross Page Prefetch Requests: 27984
L1D Same Page Prefetch Requests: 3069001
L1D ROI Sum of L1D PQ occupancy: 20974019
L1D PREFETCHES PUSHED FROM L2C: 0
L1I TOTAL     ACCESS:    9009209  HIT:    8833181  MISS:     176028  HIT %:    98.0461  MISS %:    1.95387   MPKI: 3.52056
L1I LOAD      ACCESS:    9009209  HIT:    8833181  MISS:     176028  HIT %:    98.0461  MISS %:    1.95387   MPKI: 3.52056
L1I PREFETCH  REQUESTED:          0  ISSUED:          0  USEFUL:          0  USELESS:          0
L1I USEFUL LOAD PREFETCHES:          0 PREFETCH ISSUED TO LOWER LEVEL:          0  ACCURACY: -nan
L1I TIMELY PREFETCHES:          0 LATE PREFETCHES: 0 DROPPED PREFETCHES: 0
L1I PREFETCHES SAME FILL-ORIGIN LEVEL: 0 DIFFERENT FILL-ORIGIN LEVEL: 0
L1I AVERAGE MISS LATENCY: 39.7491 cycles
L1I RQ	ACCESS:   15173378	FORWARD:          0	MERGED:    6112648	TO_CACHE:    9060730

BTB TOTAL     ACCESS:    8240388  HIT:    8162326  MISS:      78062  HIT %:    99.0527  MISS %:    0.94731   MPKI: 1.56124
BTB BRANCH_DIRECT_JUMP	ACCESS:     125745  HIT:     125105  MISS:        640
BTB BRANCH_INDIRECT	ACCESS:      22046  HIT:       8847  MISS:      13199
BTB BRANCH_CONDITIONAL	ACCESS:    6916737  HIT:    6913889  MISS:       2848
BTB BRANCH_DIRECT_CALL	ACCESS:     323606  HIT:     322531  MISS:       1075
BTB BRANCH_INDIRECT_CALL	ACCESS:     264324  HIT:     261288  MISS:       3036
BTB BRANCH_RETURN	ACCESS:     587930  HIT:     530666  MISS:      57264
BTB BRANCH_OTHER ACCESS:          0  HIT:          0  MISS:          0

L2C TOTAL     ACCESS:    2514295  HIT:     535787  MISS:    1978508  HIT %:    21.3096  MISS %:    78.6904   MPKI: 39.5702
L2C LOAD      ACCESS:    1271087  HIT:     227999  MISS:    1043088  HIT %:    17.9373  MISS %:    82.0627   MPKI: 20.8618
L2C DATA LOAD MPKI: 20.0766
L2C INSTRUCTION LOAD MPKI: 0.78518
L2C RFO       ACCESS:      20953  HIT:       7972  MISS:      12981  HIT %:    38.0471  MISS %:    61.9529   MPKI: 0.25962
L2C PREFETCH  ACCESS:     923345  HIT:      62608  MISS:     860737  HIT %:    6.78056  MISS %:    93.2194   MPKI: 17.2147
AGUS PREFETCH L1 MISS: 0
L2C DATA PREFETCH MPKI: 17.2147
L2C INSTRUCTION PREFETCH MPKI: 0
L2C WRITEBACK ACCESS:      42786  HIT:      42571  MISS:        215  HIT %:    99.4975  MISS %:   0.502501   MPKI: 0.0043
L2C LOAD TRANSLATION ACCESS:     252540  HIT:     192613  MISS:      59927  HIT %:    76.2703  MISS %:    23.7297   MPKI: 1.19854
L2C TRANSLATION FROM L1D PREFETCHER ACCESS:       3584  HIT:       2024  MISS:       1560  HIT %:    56.4732  MISS %:    43.5268   MPKI: 0.0312
L2C PREFETCH  REQUESTED:          0  ISSUED:          0  USEFUL:       8355  USELESS:     853937
L2C USEFUL LOAD PREFETCHES:       8355 PREFETCH ISSUED TO LOWER LEVEL:     860737  ACCURACY: 0.97068
L2C TIMELY PREFETCHES:       8355 LATE PREFETCHES: 0 DROPPED PREFETCHES: 0
L2C PREFETCHES SAME FILL-ORIGIN LEVEL: 0 DIFFERENT FILL-ORIGIN LEVEL: 0
L2C AVERAGE MISS LATENCY: 134.776 cycles
L2C RQ	ACCESS:    1548171	FORWARD:          0	MERGED:          0	TO_CACHE:    1548164
L2C WQ	ACCESS:      42786	FORWARD:          7	MERGED:          0	TO_CACHE:      42786
L2C PQ	ACCESS:     923345	FORWARD:          0	MERGED:          0	TO_CACHE:     923345

L2C Instructions Evicting Data 37370
L2C Translations Evicting Data 58671
L2C Data Evicting Data 1781486
L2C Instructions Evicting Instructions 877
L2C Translations Evicting Instructions 1118
L2C Data Evicting Instructions 37282
L2C Instructions Evicting Translations 1012
L2C Translations Evicting Translations 1698
L2C Data Evicting Translations 58779
L2C Dense regions hint from L2: 0
PSCL5 TOTAL     ACCESS:     254937  HIT:     254937  MISS:          0  HIT %:        100  MISS %:          0   MPKI: 0
PSCL5 LOAD TRANSLATION ACCESS:     251489  HIT:     251489  MISS:          0  HIT %:        100  MISS %:          0   MPKI: 0
PSCL5 TRANSLATION FROM L1D PREFETCHER ACCESS:       3448  HIT:       3448  MISS:          0  HIT %:        100  MISS %:          0   MPKI: 0
PSCL5 PREFETCH  REQUESTED:          0  ISSUED:          0  USEFUL:          0  USELESS:          0
PSCL5 USEFUL LOAD PREFETCHES:          0 PREFETCH ISSUED TO LOWER LEVEL:          0  ACCURACY: -nan
PSCL5 TIMELY PREFETCHES:          0 LATE PREFETCHES: 0 DROPPED PREFETCHES: 0
PSCL5 PREFETCHES SAME FILL-ORIGIN LEVEL: 0 DIFFERENT FILL-ORIGIN LEVEL: 0

PSCL4 TOTAL     ACCESS:     254937  HIT:     254937  MISS:          0  HIT %:        100  MISS %:          0   MPKI: 0
PSCL4 LOAD TRANSLATION ACCESS:     251489  HIT:     251489  MISS:          0  HIT %:        100  MISS %:          0   MPKI: 0
PSCL4 TRANSLATION FROM L1D PREFETCHER ACCESS:       3448  HIT:       3448  MISS:          0  HIT %:        100  MISS %:          0   MPKI: 0
PSCL4 PREFETCH  REQUESTED:          0  ISSUED:          0  USEFUL:          0  USELESS:          0
PSCL4 USEFUL LOAD PREFETCHES:          0 PREFETCH ISSUED TO LOWER LEVEL:          0  ACCURACY: -nan
PSCL4 TIMELY PREFETCHES:          0 LATE PREFETCHES: 0 DROPPED PREFETCHES: 0
PSCL4 PREFETCHES SAME FILL-ORIGIN LEVEL: 0 DIFFERENT FILL-ORIGIN LEVEL: 0

PSCL3 TOTAL     ACCESS:     254937  HIT:     254937  MISS:          0  HIT %:        100  MISS %:          0   MPKI: 0
PSCL3 LOAD TRANSLATION ACCESS:     251489  HIT:     251489  MISS:          0  HIT %:        100  MISS %:          0   MPKI: 0
PSCL3 TRANSLATION FROM L1D PREFETCHER ACCESS:       3448  HIT:       3448  MISS:          0  HIT %:        100  MISS %:          0   MPKI: 0
PSCL3 PREFETCH  REQUESTED:          0  ISSUED:          0  USEFUL:          0  USELESS:          0
PSCL3 USEFUL LOAD PREFETCHES:          0 PREFETCH ISSUED TO LOWER LEVEL:          0  ACCURACY: -nan
PSCL3 TIMELY PREFETCHES:          0 LATE PREFETCHES: 0 DROPPED PREFETCHES: 0
PSCL3 PREFETCHES SAME FILL-ORIGIN LEVEL: 0 DIFFERENT FILL-ORIGIN LEVEL: 0

PSCL2 TOTAL     ACCESS:     254937  HIT:     253750  MISS:       1187  HIT %:    99.5344  MISS %:   0.465605   MPKI: 0.02374
PSCL2 LOAD TRANSLATION ACCESS:     251625  HIT:     250438  MISS:       1187  HIT %:    99.5283  MISS %:   0.471734   MPKI: 0.02374
PSCL2 TRANSLATION FROM L1D PREFETCHER ACCESS:       3312  HIT:       3312  MISS:          0  HIT %:        100  MISS %:          0   MPKI: 0
PSCL2 PREFETCH  REQUESTED:          0  ISSUED:          0  USEFUL:          0  USELESS:          0
PSCL2 USEFUL LOAD PREFETCHES:          0 PREFETCH ISSUED TO LOWER LEVEL:          0  ACCURACY: -nan
PSCL2 TIMELY PREFETCHES:          0 LATE PREFETCHES: 0 DROPPED PREFETCHES: 0
PSCL2 PREFETCHES SAME FILL-ORIGIN LEVEL: 0 DIFFERENT FILL-ORIGIN LEVEL: 0

LLC TOTAL     ACCESS:    2001438  HIT:     142254  MISS:    1859184  HIT %:    7.10759  MISS %:    92.8924   MPKI: 37.1837
LLC LOAD      ACCESS:    1043088  HIT:      65151  MISS:     977937  HIT %:    6.24597  MISS %:     93.754   MPKI: 19.5587
LLC RFO       ACCESS:      12981  HIT:       1716  MISS:      11265  HIT %:    13.2193  MISS %:    86.7807   MPKI: 0.2253
LLC PREFETCH  ACCESS:     860737  HIT:      50057  MISS:     810680  HIT %:     5.8156  MISS %:    94.1844   MPKI: 16.2136
AGUS PREFETCH L1 MISS: 0
LLC WRITEBACK ACCESS:      23145  HIT:      23020  MISS:        125  HIT %:    99.4599  MISS %:   0.540073   MPKI: 0.0025
LLC LOAD TRANSLATION ACCESS:      59927  HIT:       2112  MISS:      57815  HIT %:    3.52429  MISS %:    96.4757   MPKI: 1.1563
LLC TRANSLATION FROM L1D PREFETCHER ACCESS:       1560  HIT:        198  MISS:       1362  HIT %:    12.6923  MISS %:    87.3077   MPKI: 0.02724
LLC PREFETCH  REQUESTED:          0  ISSUED:          0  USEFUL:       8731  USELESS:     803478
LLC USEFUL LOAD PREFETCHES:       8731 PREFETCH ISSUED TO LOWER LEVEL:     810680  ACCURACY: 1.077
LLC TIMELY PREFETCHES:       8731 LATE PREFETCHES: 0 DROPPED PREFETCHES: 0
LLC PREFETCHES SAME FILL-ORIGIN LEVEL: 0 DIFFERENT FILL-ORIGIN LEVEL: 0
LLC AVERAGE MISS LATENCY: 111.503 cycles
LLC RQ	ACCESS:    1117556	FORWARD:          0	MERGED:          0	TO_CACHE:    1117556
LLC WQ	ACCESS:      23145	FORWARD:          0	MERGED:          0	TO_CACHE:      23145
LLC PQ	ACCESS:     860737	FORWARD:          0	MERGED:          0	TO_CACHE:     860737

LLC Dense regions hint to LLC: 0

RAW hits: 62914
Loads Generated: 14742061
Loads sent to L1D: 14679147
Stores Generated: 2425922
Stores sent to L1D: 2425925
Major fault: 0 Minor fault: 11043
Allocated PAGES: 11043

stream: 
stream:times selected: 3415112
stream:pref_filled: 1493681
stream:pref_useful: 295364
stream:pref_late: 101538
stream:misses: 627290
stream:misses_by_poll: 0

CS: 
CS:times selected: 109411
CS:pref_filled: 98277
CS:pref_useful: 67689
CS:pref_late: 962
CS:misses: 1336
CS:misses_by_poll: 95

CPLX: 
CPLX:times selected: 3273890
CPLX:pref_filled: 135438
CPLX:pref_useful: 19839
CPLX:pref_late: 889
CPLX:misses: 1723537
CPLX:misses_by_poll: 88

ISB: 
ISB:times selected:103011
ISB:pref_filled: 18694
ISB:pref_useful: 14412
ISB:pref_late: 128
ISB:misses: 12580
ISB:misses_by_poll: 21

NL_L1: 
NL:times selected: 31077
NL:pref_filled: 14697
NL:pref_useful: 3551
NL:pref_late: 1602
NL:misses: 22549
NL:misses_by_poll: 0

total selections: 6932501
total_filled: 870584
total_useful: 201045
total_late: 107192
total_polluted: 204
total_misses_after_warmup: 1190639
conflicts: 1931908

test: 2202308

DRAM Statistics
 CHANNEL 0
 RQ ROW_BUFFER_HIT:    1238559  ROW_BUFFER_MISS:     620500
 DBUS_CONGESTED:        407
 WQ ROW_BUFFER_HIT:       1108  ROW_BUFFER_MISS:      17266  FULL:          0

 AVG_CONGESTED_CYCLE: 4
 All warmup complete: 2
Channel 0 Bank busy for read cycles: 0
Channel 0 Bank busy for write cycles: 0
Channel 0
Rank 0
0banks busy for read cycles: 109685277
0banks busy for write cycles: 14385
1banks busy for read cycles: 34468138
1banks busy for write cycles: 2589171
2banks busy for read cycles: 21617568
2banks busy for write cycles: 479336
3banks busy for read cycles: 9690299
3banks busy for write cycles: 92352
4banks busy for read cycles: 5381315
4banks busy for write cycles: 16674
5banks busy for read cycles: 3643889
5banks busy for write cycles: 4297
6banks busy for read cycles: 1127939
6banks busy for write cycles: 0
7banks busy for read cycles: 210022
7banks busy for write cycles: 0
8banks busy for read cycles: 31072
8banks busy for write cycles: 0

CPU 0 Branch Prediction Accuracy: 94.9771% MPKI: 13.0224 Average ROB Occupancy at Mispredict: 41.4588
Branch types
NOT_BRANCH: 37037111 74.0742%
BRANCH_DIRECT_JUMP: 125745 0.25149%
BRANCH_INDIRECT: 22046 0.044092%
BRANCH_CONDITIONAL: 11639280 23.2786%
BRANCH_DIRECT_CALL: 323606 0.647212%
BRANCH_INDIRECT_CALL: 264324 0.528648%
BRANCH_RETURN: 587930 1.17586%
BRANCH_OTHER: 0 0%

DRAM PAGES: 1048576
Allocated PAGES: 11043
